  
       XFOIL         Version 6.99
  
 Calculated polar for: MH 117  9.8%                                    
  
 1 1 Reynolds number fixed          Mach number fixed         
  
 xtrf =   1.000 (top)        1.000 (bottom)  
 Mach =   0.000     Re =     1.300 e 6     Ncrit =   9.000
  
   alpha    CL        CD       CDp       CM     Top_Xtr  Bot_Xtr
  ------ -------- --------- --------- -------- -------- --------
  -5.000  -0.2233   0.00772   0.00238  -0.0731   0.8419   0.0331
  -4.800  -0.2017   0.00753   0.00222  -0.0729   0.8325   0.0449
  -4.600  -0.1800   0.00738   0.00208  -0.0728   0.8237   0.0550
  -4.400  -0.1581   0.00727   0.00195  -0.0726   0.8148   0.0630
  -4.200  -0.1361   0.00717   0.00183  -0.0726   0.8064   0.0707
  -4.000  -0.1143   0.00705   0.00172  -0.0724   0.7981   0.0827
  -3.800  -0.0922   0.00692   0.00162  -0.0724   0.7898   0.0959
  -3.600  -0.0703   0.00681   0.00152  -0.0723   0.7821   0.1099
  -3.400  -0.0482   0.00670   0.00143  -0.0722   0.7740   0.1238
  -3.200  -0.0260   0.00661   0.00134  -0.0721   0.7665   0.1369
  -3.000  -0.0039   0.00652   0.00127  -0.0721   0.7585   0.1512
  -2.800   0.0183   0.00642   0.00120  -0.0720   0.7510   0.1686
  -2.600   0.0404   0.00634   0.00113  -0.0719   0.7433   0.1856
  -2.400   0.0627   0.00625   0.00107  -0.0719   0.7356   0.2048
  -2.200   0.0848   0.00618   0.00102  -0.0718   0.7277   0.2256
  -2.000   0.1071   0.00609   0.00097  -0.0718   0.7196   0.2460
  -1.800   0.1293   0.00604   0.00093  -0.0718   0.7119   0.2663
  -1.600   0.1515   0.00595   0.00090  -0.0717   0.7039   0.2906
  -1.400   0.1737   0.00587   0.00087  -0.0717   0.6964   0.3179
  -1.200   0.1959   0.00580   0.00084  -0.0716   0.6886   0.3438
  -1.000   0.2182   0.00573   0.00083  -0.0716   0.6812   0.3721
  -0.800   0.2403   0.00565   0.00081  -0.0716   0.6734   0.4066
  -0.600   0.2625   0.00557   0.00080  -0.0716   0.6659   0.4397
  -0.400   0.2845   0.00550   0.00080  -0.0715   0.6580   0.4750
  -0.200   0.3067   0.00540   0.00081  -0.0715   0.6504   0.5178
   0.000   0.3286   0.00532   0.00082  -0.0714   0.6426   0.5619
   0.200   0.3506   0.00523   0.00083  -0.0713   0.6346   0.6066
   0.400   0.3724   0.00515   0.00085  -0.0712   0.6268   0.6529
   0.600   0.3941   0.00506   0.00088  -0.0710   0.6183   0.7005
   0.800   0.4155   0.00498   0.00091  -0.0708   0.6102   0.7485
   1.000   0.4366   0.00492   0.00095  -0.0704   0.6015   0.7954
   1.200   0.4572   0.00484   0.00100  -0.0699   0.5929   0.8420
   1.400   0.4766   0.00478   0.00104  -0.0691   0.5842   0.8883
   1.600   0.4953   0.00474   0.00108  -0.0681   0.5749   0.9317
   1.800   0.5201   0.00475   0.00110  -0.0685   0.5647   0.9701
   2.000   0.5520   0.00480   0.00112  -0.0706   0.5533   0.9927
   2.200   0.5777   0.00489   0.00115  -0.0713   0.5416   1.0000
   2.400   0.5989   0.00498   0.00119  -0.0711   0.5290   1.0000
   2.600   0.6203   0.00508   0.00124  -0.0708   0.5158   1.0000
   3.000   0.6629   0.00530   0.00136  -0.0704   0.4857   1.0000
   3.200   0.6840   0.00544   0.00143  -0.0702   0.4661   1.0000
   3.400   0.7048   0.00562   0.00151  -0.0699   0.4443   1.0000
   3.600   0.7256   0.00581   0.00161  -0.0696   0.4198   1.0000
   3.800   0.7459   0.00603   0.00173  -0.0693   0.3920   1.0000
   4.000   0.7661   0.00629   0.00186  -0.0689   0.3626   1.0000
   4.200   0.7865   0.00653   0.00199  -0.0686   0.3376   1.0000
   4.400   0.8070   0.00676   0.00212  -0.0683   0.3160   1.0000
   4.600   0.8273   0.00700   0.00227  -0.0680   0.2928   1.0000
   4.800   0.8474   0.00727   0.00244  -0.0677   0.2674   1.0000
   5.000   0.8676   0.00753   0.00260  -0.0674   0.2464   1.0000
   5.200   0.8879   0.00776   0.00276  -0.0671   0.2272   1.0000
   5.400   0.9079   0.00804   0.00295  -0.0667   0.2072   1.0000
   5.600   0.9279   0.00830   0.00313  -0.0664   0.1877   1.0000
   5.800   0.9479   0.00857   0.00333  -0.0661   0.1703   1.0000
   6.000   0.9678   0.00885   0.00353  -0.0657   0.1540   1.0000
   6.200   0.9874   0.00915   0.00375  -0.0653   0.1373   1.0000
   6.400   1.0072   0.00943   0.00397  -0.0650   0.1229   1.0000
   6.600   1.0267   0.00973   0.00420  -0.0646   0.1084   1.0000
   6.800   1.0462   0.01002   0.00444  -0.0641   0.0961   1.0000
   7.000   1.0655   0.01033   0.00470  -0.0637   0.0849   1.0000
   7.200   1.0848   0.01063   0.00495  -0.0633   0.0750   1.0000
   7.400   1.1043   0.01091   0.00520  -0.0629   0.0671   1.0000
   7.600   1.1232   0.01124   0.00548  -0.0624   0.0577   1.0000
   7.800   1.1416   0.01161   0.00579  -0.0619   0.0480   1.0000
   8.000   1.1607   0.01190   0.00606  -0.0614   0.0431   1.0000
   8.200   1.1793   0.01223   0.00636  -0.0609   0.0370   1.0000
   8.400   1.1981   0.01254   0.00665  -0.0604   0.0329   1.0000
   8.600   1.2163   0.01289   0.00699  -0.0598   0.0280   1.0000
   8.800   1.2351   0.01317   0.00728  -0.0594   0.0258   1.0000
   9.000   1.2528   0.01355   0.00763  -0.0587   0.0224   1.0000
   9.200   1.2709   0.01389   0.00797  -0.0581   0.0194   1.0000
   9.400   1.2885   0.01425   0.00833  -0.0575   0.0170   1.0000
   9.600   1.3051   0.01468   0.00875  -0.0567   0.0138   1.0000
   9.800   1.3222   0.01506   0.00913  -0.0560   0.0119   1.0000
  10.000   1.3378   0.01555   0.00961  -0.0551   0.0091   1.0000
  10.200   1.3528   0.01608   0.01014  -0.0541   0.0065   1.0000
  10.400   1.3666   0.01668   0.01074  -0.0529   0.0044   1.0000
  10.600   1.3807   0.01723   0.01133  -0.0517   0.0033   1.0000
  10.800   1.3931   0.01788   0.01202  -0.0503   0.0026   1.0000
  11.000   1.4054   0.01852   0.01272  -0.0489   0.0022   1.0000
  11.200   1.4186   0.01903   0.01328  -0.0477   0.0021   1.0000
  11.400   1.4304   0.01951   0.01380  -0.0462   0.0019   1.0000
  11.600   1.4397   0.02006   0.01440  -0.0442   0.0017   1.0000
  11.800   1.4470   0.02072   0.01511  -0.0421   0.0015   1.0000
  12.000   1.4559   0.02129   0.01574  -0.0402   0.0015   1.0000
  12.200   1.4523   0.02271   0.01730  -0.0369   0.0012   1.0000
  12.400   1.4604   0.02337   0.01802  -0.0352   0.0011   1.0000
  12.600   1.4671   0.02416   0.01888  -0.0335   0.0011   1.0000
  12.800   1.4730   0.02504   0.01982  -0.0318   0.0011   1.0000
  13.000   1.4779   0.02602   0.02088  -0.0301   0.0011   1.0000
  13.200   1.4821   0.02710   0.02204  -0.0286   0.0010   1.0000
  13.400   1.4860   0.02825   0.02326  -0.0271   0.0010   1.0000
  13.600   1.4885   0.02957   0.02466  -0.0257   0.0009   1.0000
  13.800   1.4890   0.03112   0.02631  -0.0244   0.0009   1.0000
  14.000   1.4909   0.03263   0.02790  -0.0233   0.0009   1.0000
  14.200   1.4913   0.03434   0.02970  -0.0224   0.0009   1.0000
  14.400   1.4912   0.03618   0.03163  -0.0216   0.0009   1.0000
  14.600   1.4896   0.03826   0.03380  -0.0210   0.0009   1.0000
  14.800   1.4887   0.04035   0.03597  -0.0206   0.0009   1.0000
  15.000   1.4851   0.04283   0.03855  -0.0203   0.0009   1.0000
  15.200   1.4802   0.04559   0.04142  -0.0204   0.0008   1.0000
  15.400   1.4748   0.04852   0.04445  -0.0206   0.0008   1.0000
  15.600   1.4690   0.05164   0.04768  -0.0211   0.0008   1.0000
  15.800   1.4577   0.05564   0.05180  -0.0221   0.0008   1.0000
  16.000   1.4501   0.05936   0.05562  -0.0232   0.0008   1.0000
  16.200   1.4444   0.06294   0.05929  -0.0244   0.0008   1.0000
  16.400   1.4327   0.06764   0.06412  -0.0262   0.0008   1.0000
  16.600   1.4184   0.07302   0.06962  -0.0286   0.0008   1.0000
  16.800   1.4082   0.07796   0.07466  -0.0310   0.0008   1.0000
  17.000   1.3938   0.08386   0.08068  -0.0339   0.0008   1.0000
  17.200   1.3795   0.08998   0.08692  -0.0371   0.0008   1.0000
  17.400   1.3628   0.09686   0.09392  -0.0408   0.0008   1.0000
  17.600   1.3429   0.10458   0.10177  -0.0451   0.0008   1.0000
  17.800   1.3207   0.11309   0.11040  -0.0499   0.0008   1.0000
  18.000   1.3005   0.12135   0.11879  -0.0547   0.0008   1.0000
  18.200   1.2794   0.12998   0.12753  -0.0596   0.0008   1.0000
  18.400   1.2614   0.13803   0.13568  -0.0643   0.0008   1.0000
  18.600   1.2441   0.14609   0.14384  -0.0691   0.0009   1.0000
  18.800   1.2257   0.15455   0.15239  -0.0742   0.0009   1.0000
  19.000   1.2107   0.16232   0.16025  -0.0789   0.0009   1.0000
  19.200   1.1979   0.16965   0.16765  -0.0834   0.0009   1.0000
  19.400   1.1873   0.17656   0.17463  -0.0876   0.0009   1.0000
  19.600   1.1759   0.18384   0.18198  -0.0922   0.0009   1.0000
  19.800   1.1671   0.19048   0.18867  -0.0963   0.0009   1.0000
  20.000   1.1600   0.19675   0.19500  -0.1002   0.0009   1.0000
  20.200   1.1527   0.20316   0.20147  -0.1042   0.0009   1.0000
  20.400   1.1463   0.20954   0.20791  -0.1082   0.0009   1.0000
  20.600   1.1423   0.21522   0.21363  -0.1117   0.0010   1.0000
  20.800   1.1357   0.22204   0.22051  -0.1158   0.0010   1.0000
  21.000   1.1316   0.22807   0.22659  -0.1195   0.0010   1.0000
  21.200   1.1218   0.23677   0.23536  -0.1244   0.0010   1.0000
