  
       XFOIL         Version 6.99
  
 Calculated polar for: MH 117  9.8%                                    
  
 1 1 Reynolds number fixed          Mach number fixed         
  
 xtrf =   1.000 (top)        1.000 (bottom)  
 Mach =   0.000     Re =     0.700 e 6     Ncrit =   9.000
  
   alpha    CL        CD       CDp       CM     Top_Xtr  Bot_Xtr
  ------ -------- --------- --------- -------- -------- --------
  -5.000  -0.2164   0.00875   0.00314  -0.0752   0.9010   0.0541
  -4.800  -0.1951   0.00859   0.00297  -0.0750   0.8906   0.0641
  -4.600  -0.1736   0.00845   0.00281  -0.0747   0.8808   0.0745
  -4.400  -0.1521   0.00833   0.00266  -0.0745   0.8710   0.0850
  -4.200  -0.1307   0.00819   0.00253  -0.0743   0.8612   0.0968
  -4.000  -0.1092   0.00805   0.00239  -0.0741   0.8521   0.1102
  -3.800  -0.0876   0.00792   0.00225  -0.0738   0.8430   0.1242
  -3.600  -0.0659   0.00779   0.00212  -0.0737   0.8341   0.1384
  -3.400  -0.0443   0.00766   0.00200  -0.0735   0.8257   0.1548
  -3.200  -0.0226   0.00753   0.00189  -0.0733   0.8169   0.1740
  -3.000  -0.0008   0.00742   0.00180  -0.0732   0.8089   0.1934
  -2.800   0.0209   0.00730   0.00171  -0.0731   0.8008   0.2149
  -2.600   0.0428   0.00719   0.00163  -0.0729   0.7927   0.2390
  -2.400   0.0646   0.00709   0.00156  -0.0728   0.7851   0.2631
  -2.200   0.0866   0.00698   0.00150  -0.0727   0.7769   0.2878
  -2.000   0.1083   0.00688   0.00144  -0.0726   0.7696   0.3169
  -1.800   0.1302   0.00677   0.00140  -0.0725   0.7614   0.3487
  -1.600   0.1521   0.00668   0.00136  -0.0724   0.7538   0.3798
  -1.400   0.1738   0.00656   0.00132  -0.0723   0.7456   0.4158
  -1.200   0.1956   0.00645   0.00130  -0.0721   0.7378   0.4567
  -1.000   0.2172   0.00635   0.00128  -0.0720   0.7299   0.4972
  -0.800   0.2389   0.00622   0.00127  -0.0718   0.7221   0.5430
  -0.600   0.2602   0.00611   0.00127  -0.0716   0.7146   0.5935
  -0.400   0.2816   0.00598   0.00128  -0.0713   0.7066   0.6452
  -0.200   0.3026   0.00588   0.00129  -0.0710   0.6993   0.6970
   0.000   0.3233   0.00575   0.00132  -0.0705   0.6912   0.7495
   0.200   0.3433   0.00565   0.00135  -0.0698   0.6838   0.8017
   0.400   0.3627   0.00555   0.00138  -0.0690   0.6758   0.8515
   0.600   0.3812   0.00549   0.00141  -0.0678   0.6683   0.8996
   0.800   0.4029   0.00546   0.00142  -0.0674   0.6602   0.9441
   1.000   0.4347   0.00546   0.00141  -0.0693   0.6516   0.9764
   1.200   0.4682   0.00551   0.00140  -0.0717   0.6429   0.9968
   1.400   0.4917   0.00555   0.00141  -0.0719   0.6339   1.0000
   1.600   0.5125   0.00562   0.00143  -0.0716   0.6254   1.0000
   1.800   0.5335   0.00569   0.00146  -0.0713   0.6163   1.0000
   2.000   0.5548   0.00575   0.00150  -0.0710   0.6070   1.0000
   2.200   0.5760   0.00583   0.00154  -0.0708   0.5975   1.0000
   2.400   0.5972   0.00591   0.00158  -0.0705   0.5874   1.0000
   2.600   0.6186   0.00599   0.00163  -0.0703   0.5766   1.0000
   2.800   0.6399   0.00607   0.00169  -0.0700   0.5656   1.0000
   3.000   0.6612   0.00617   0.00175  -0.0698   0.5532   1.0000
   3.200   0.6824   0.00628   0.00181  -0.0695   0.5402   1.0000
   3.400   0.7035   0.00639   0.00188  -0.0693   0.5261   1.0000
   3.600   0.7245   0.00652   0.00196  -0.0690   0.5091   1.0000
   3.800   0.7452   0.00668   0.00206  -0.0687   0.4901   1.0000
   4.000   0.7658   0.00685   0.00216  -0.0684   0.4696   1.0000
   4.200   0.7860   0.00706   0.00228  -0.0680   0.4447   1.0000
   4.400   0.8059   0.00730   0.00241  -0.0676   0.4173   1.0000
   4.600   0.8255   0.00758   0.00257  -0.0671   0.3872   1.0000
   4.800   0.8452   0.00787   0.00275  -0.0667   0.3605   1.0000
   5.000   0.8648   0.00816   0.00294  -0.0663   0.3342   1.0000
   5.200   0.8841   0.00849   0.00315  -0.0658   0.3059   1.0000
   5.400   0.9034   0.00881   0.00336  -0.0654   0.2796   1.0000
   5.600   0.9229   0.00912   0.00358  -0.0650   0.2566   1.0000
   5.800   0.9420   0.00946   0.00383  -0.0645   0.2343   1.0000
   6.000   0.9612   0.00979   0.00407  -0.0641   0.2116   1.0000
   6.200   0.9801   0.01015   0.00433  -0.0636   0.1899   1.0000
   6.400   0.9992   0.01048   0.00459  -0.0631   0.1712   1.0000
   6.600   1.0178   0.01086   0.00488  -0.0626   0.1525   1.0000
   6.800   1.0365   0.01122   0.00516  -0.0621   0.1351   1.0000
   7.000   1.0552   0.01159   0.00547  -0.0616   0.1195   1.0000
   7.200   1.0735   0.01197   0.00580  -0.0610   0.1045   1.0000
   7.400   1.0917   0.01236   0.00613  -0.0604   0.0919   1.0000
   7.600   1.1099   0.01274   0.00648  -0.0598   0.0815   1.0000
   7.800   1.1277   0.01316   0.00685  -0.0592   0.0720   1.0000
   8.000   1.1458   0.01353   0.00720  -0.0586   0.0646   1.0000
   8.200   1.1637   0.01391   0.00758  -0.0580   0.0577   1.0000
   8.400   1.1809   0.01434   0.00797  -0.0573   0.0511   1.0000
   8.600   1.1989   0.01469   0.00836  -0.0567   0.0462   1.0000
   8.800   1.2159   0.01512   0.00875  -0.0560   0.0408   1.0000
   9.000   1.2331   0.01551   0.00917  -0.0553   0.0364   1.0000
   9.200   1.2503   0.01589   0.00954  -0.0546   0.0324   1.0000
   9.400   1.2658   0.01641   0.01004  -0.0536   0.0278   1.0000
   9.600   1.2830   0.01675   0.01041  -0.0530   0.0250   1.0000
   9.800   1.2980   0.01727   0.01090  -0.0520   0.0213   1.0000
  10.000   1.3136   0.01771   0.01136  -0.0511   0.0181   1.0000
  10.200   1.3272   0.01829   0.01192  -0.0500   0.0148   1.0000
  10.400   1.3409   0.01883   0.01250  -0.0488   0.0119   1.0000
  10.600   1.3518   0.01957   0.01324  -0.0473   0.0088   1.0000
  10.800   1.3594   0.02044   0.01412  -0.0452   0.0064   1.0000
  11.000   1.3678   0.02112   0.01487  -0.0432   0.0055   1.0000
  11.200   1.3750   0.02186   0.01568  -0.0411   0.0047   1.0000
  11.400   1.3799   0.02278   0.01665  -0.0388   0.0041   1.0000
  11.600   1.3827   0.02385   0.01783  -0.0363   0.0037   1.0000
  11.800   1.3897   0.02465   0.01870  -0.0346   0.0035   1.0000
  12.000   1.3949   0.02560   0.01975  -0.0327   0.0035   1.0000
  12.200   1.4004   0.02658   0.02079  -0.0311   0.0032   1.0000
  12.400   1.4048   0.02766   0.02196  -0.0295   0.0030   1.0000
  12.600   1.4083   0.02886   0.02325  -0.0280   0.0029   1.0000
  12.800   1.4115   0.03015   0.02461  -0.0266   0.0028   1.0000
  13.000   1.4128   0.03165   0.02620  -0.0253   0.0027   1.0000
  13.200   1.4082   0.03376   0.02842  -0.0239   0.0025   1.0000
  13.400   1.4025   0.03610   0.03090  -0.0228   0.0024   1.0000
  13.600   1.3891   0.03938   0.03435  -0.0218   0.0023   1.0000
  13.800   1.3868   0.04167   0.03675  -0.0214   0.0022   1.0000
  14.000   1.3883   0.04366   0.03882  -0.0212   0.0022   1.0000
  14.200   1.3853   0.04623   0.04151  -0.0212   0.0022   1.0000
  14.400   1.3779   0.04944   0.04483  -0.0215   0.0022   1.0000
  14.600   1.3765   0.05205   0.04755  -0.0219   0.0021   1.0000
  14.800   1.3701   0.05541   0.05101  -0.0226   0.0021   1.0000
  15.000   1.3603   0.05938   0.05511  -0.0237   0.0022   1.0000
  15.200   1.3563   0.06275   0.05859  -0.0248   0.0020   1.0000
  15.400   1.3479   0.06691   0.06288  -0.0264   0.0020   1.0000
  15.600   1.3374   0.07160   0.06768  -0.0283   0.0020   1.0000
  15.800   1.3272   0.07649   0.07270  -0.0306   0.0019   1.0000
  16.000   1.3162   0.08173   0.07806  -0.0331   0.0019   1.0000
  16.200   1.3038   0.08737   0.08382  -0.0359   0.0020   1.0000
  16.400   1.2917   0.09325   0.08982  -0.0390   0.0020   1.0000
  16.600   1.2786   0.09951   0.09620  -0.0424   0.0019   1.0000
  16.800   1.2649   0.10599   0.10279  -0.0459   0.0020   1.0000
  17.000   1.2509   0.11274   0.10965  -0.0496   0.0020   1.0000
  17.200   1.2378   0.11943   0.11646  -0.0534   0.0020   1.0000
  17.400   1.2248   0.12617   0.12330  -0.0572   0.0021   1.0000
  17.600   1.2112   0.13318   0.13041  -0.0612   0.0021   1.0000
  17.800   1.1986   0.14016   0.13749  -0.0653   0.0020   1.0000
  18.000   1.1876   0.14690   0.14431  -0.0692   0.0020   1.0000
  18.200   1.1763   0.15370   0.15120  -0.0733   0.0020   1.0000
  18.400   1.1663   0.16031   0.15789  -0.0772   0.0021   1.0000
  18.600   1.1572   0.16681   0.16447  -0.0812   0.0021   1.0000
  18.800   1.1479   0.17355   0.17129  -0.0852   0.0021   1.0000
  19.000   1.1392   0.18027   0.17809  -0.0893   0.0021   1.0000
  19.200   1.1309   0.18697   0.18486  -0.0934   0.0021   1.0000
  19.400   1.1224   0.19392   0.19188  -0.0977   0.0022   1.0000
  19.600   1.1127   0.20159   0.19963  -0.1023   0.0022   1.0000
  19.800   1.1021   0.20977   0.20787  -0.1071   0.0022   1.0000
