  
       XFOIL         Version 6.99
  
 Calculated polar for: MH 117  9.8%                                    
  
 1 1 Reynolds number fixed          Mach number fixed         
  
 xtrf =   1.000 (top)        1.000 (bottom)  
 Mach =   0.000     Re =     0.800 e 6     Ncrit =   9.000
  
   alpha    CL        CD       CDp       CM     Top_Xtr  Bot_Xtr
  ------ -------- --------- --------- -------- -------- --------
  -5.000  -0.2180   0.00848   0.00294  -0.0746   0.8880   0.0498
  -4.800  -0.1966   0.00834   0.00277  -0.0744   0.8778   0.0586
  -4.600  -0.1752   0.00819   0.00262  -0.0742   0.8681   0.0692
  -4.400  -0.1538   0.00804   0.00247  -0.0740   0.8583   0.0802
  -4.200  -0.1322   0.00791   0.00233  -0.0738   0.8490   0.0920
  -4.000  -0.1106   0.00778   0.00220  -0.0736   0.8401   0.1047
  -3.800  -0.0890   0.00765   0.00208  -0.0734   0.8310   0.1188
  -3.600  -0.0672   0.00753   0.00196  -0.0733   0.8224   0.1327
  -3.400  -0.0455   0.00742   0.00185  -0.0731   0.8140   0.1474
  -3.200  -0.0235   0.00730   0.00175  -0.0730   0.8056   0.1649
  -3.000  -0.0018   0.00720   0.00165  -0.0728   0.7978   0.1837
  -2.800   0.0202   0.00708   0.00157  -0.0727   0.7895   0.2035
  -2.600   0.0421   0.00698   0.00150  -0.0726   0.7819   0.2261
  -2.400   0.0640   0.00688   0.00143  -0.0725   0.7738   0.2498
  -2.200   0.0860   0.00678   0.00137  -0.0724   0.7662   0.2730
  -2.000   0.1079   0.00669   0.00132  -0.0723   0.7584   0.2983
  -1.800   0.1299   0.00658   0.00127  -0.0723   0.7505   0.3286
  -1.600   0.1517   0.00650   0.00123  -0.0721   0.7428   0.3590
  -1.400   0.1738   0.00639   0.00120  -0.0721   0.7346   0.3905
  -1.200   0.1955   0.00630   0.00117  -0.0719   0.7270   0.4282
  -1.000   0.2174   0.00619   0.00115  -0.0719   0.7188   0.4680
  -0.800   0.2392   0.00609   0.00114  -0.0717   0.7114   0.5083
  -0.600   0.2609   0.00597   0.00114  -0.0716   0.7035   0.5558
  -0.400   0.2824   0.00586   0.00114  -0.0714   0.6961   0.6052
  -0.200   0.3038   0.00575   0.00116  -0.0712   0.6882   0.6551
   0.000   0.3250   0.00563   0.00118  -0.0709   0.6806   0.7064
   0.200   0.3457   0.00554   0.00120  -0.0704   0.6728   0.7578
   0.400   0.3661   0.00543   0.00124  -0.0698   0.6650   0.8088
   0.600   0.3853   0.00536   0.00127  -0.0689   0.6574   0.8577
   0.800   0.4041   0.00528   0.00130  -0.0679   0.6494   0.9048
   1.000   0.4258   0.00526   0.00132  -0.0674   0.6415   0.9488
   1.200   0.4574   0.00527   0.00132  -0.0694   0.6324   0.9796
   1.400   0.4906   0.00531   0.00131  -0.0717   0.6231   0.9985
   1.600   0.5126   0.00538   0.00133  -0.0716   0.6143   1.0000
   1.800   0.5338   0.00544   0.00136  -0.0714   0.6050   1.0000
   2.000   0.5550   0.00551   0.00140  -0.0711   0.5959   1.0000
   2.200   0.5761   0.00559   0.00143  -0.0708   0.5859   1.0000
   2.400   0.5975   0.00566   0.00147  -0.0706   0.5753   1.0000
   2.600   0.6190   0.00574   0.00152  -0.0704   0.5645   1.0000
   2.800   0.6403   0.00584   0.00158  -0.0701   0.5527   1.0000
   3.000   0.6615   0.00594   0.00164  -0.0699   0.5399   1.0000
   3.200   0.6827   0.00605   0.00170  -0.0697   0.5260   1.0000
   3.400   0.7039   0.00617   0.00178  -0.0694   0.5106   1.0000
   3.600   0.7248   0.00631   0.00186  -0.0691   0.4923   1.0000
   3.800   0.7455   0.00648   0.00196  -0.0688   0.4722   1.0000
   4.000   0.7661   0.00666   0.00206  -0.0685   0.4492   1.0000
   4.200   0.7862   0.00690   0.00218  -0.0681   0.4217   1.0000
   4.400   0.8060   0.00716   0.00233  -0.0677   0.3928   1.0000
   4.600   0.8258   0.00744   0.00249  -0.0673   0.3646   1.0000
   4.800   0.8457   0.00771   0.00267  -0.0669   0.3399   1.0000
   5.000   0.8654   0.00800   0.00285  -0.0665   0.3136   1.0000
   5.200   0.8848   0.00833   0.00306  -0.0661   0.2860   1.0000
   5.600   0.9240   0.00892   0.00347  -0.0653   0.2409   1.0000
   5.800   0.9433   0.00925   0.00370  -0.0649   0.2190   1.0000
   6.000   0.9626   0.00958   0.00394  -0.0644   0.1969   1.0000
   6.200   0.9818   0.00991   0.00419  -0.0640   0.1778   1.0000
   6.400   1.0010   0.01023   0.00444  -0.0635   0.1597   1.0000
   6.600   1.0199   0.01059   0.00471  -0.0631   0.1417   1.0000
   6.800   1.0386   0.01095   0.00499  -0.0626   0.1254   1.0000
   7.000   1.0573   0.01131   0.00530  -0.0620   0.1106   1.0000
   7.200   1.0759   0.01167   0.00560  -0.0615   0.0969   1.0000
   7.400   1.0943   0.01205   0.00592  -0.0610   0.0852   1.0000
   7.600   1.1130   0.01239   0.00624  -0.0604   0.0762   1.0000
   7.800   1.1315   0.01273   0.00656  -0.0599   0.0682   1.0000
   8.000   1.1493   0.01315   0.00694  -0.0592   0.0598   1.0000
   8.200   1.1676   0.01348   0.00726  -0.0587   0.0538   1.0000
   8.400   1.1854   0.01388   0.00764  -0.0581   0.0475   1.0000
   8.600   1.2033   0.01423   0.00799  -0.0575   0.0424   1.0000
   8.800   1.2206   0.01464   0.00839  -0.0568   0.0370   1.0000
   9.000   1.2384   0.01498   0.00873  -0.0562   0.0331   1.0000
   9.200   1.2544   0.01548   0.00920  -0.0553   0.0280   1.0000
   9.400   1.2722   0.01579   0.00954  -0.0547   0.0255   1.0000
   9.600   1.2879   0.01628   0.00998  -0.0539   0.0214   1.0000
   9.800   1.3043   0.01669   0.01042  -0.0530   0.0189   1.0000
  10.000   1.3194   0.01718   0.01090  -0.0521   0.0158   1.0000
  10.200   1.3341   0.01769   0.01143  -0.0510   0.0130   1.0000
  10.400   1.3466   0.01835   0.01208  -0.0497   0.0096   1.0000
  10.600   1.3590   0.01898   0.01273  -0.0484   0.0072   1.0000
  10.800   1.3690   0.01976   0.01355  -0.0467   0.0053   1.0000
  11.000   1.3777   0.02046   0.01429  -0.0447   0.0045   1.0000
  11.200   1.3816   0.02141   0.01533  -0.0420   0.0038   1.0000
  11.400   1.3908   0.02201   0.01599  -0.0402   0.0035   1.0000
  11.600   1.3981   0.02274   0.01679  -0.0383   0.0032   1.0000
  11.800   1.4049   0.02352   0.01763  -0.0364   0.0029   1.0000
  12.000   1.4113   0.02435   0.01854  -0.0345   0.0029   1.0000
  12.200   1.4154   0.02537   0.01963  -0.0326   0.0026   1.0000
  12.400   1.4140   0.02685   0.02122  -0.0303   0.0024   1.0000
  12.600   1.4098   0.02862   0.02313  -0.0281   0.0023   1.0000
  12.800   1.4141   0.02980   0.02438  -0.0268   0.0022   1.0000
  13.000   1.4157   0.03125   0.02593  -0.0254   0.0022   1.0000
  13.200   1.4214   0.03243   0.02721  -0.0245   0.0020   1.0000
  13.400   1.4226   0.03406   0.02893  -0.0235   0.0020   1.0000
  13.600   1.4233   0.03581   0.03078  -0.0226   0.0019   1.0000
  13.800   1.4212   0.03793   0.03300  -0.0219   0.0019   1.0000
  14.000   1.4215   0.03988   0.03504  -0.0214   0.0018   1.0000
  14.200   1.4188   0.04224   0.03751  -0.0211   0.0018   1.0000
  14.400   1.4146   0.04489   0.04027  -0.0210   0.0018   1.0000
  14.600   1.4117   0.04750   0.04298  -0.0211   0.0017   1.0000
  14.800   1.4069   0.05045   0.04603  -0.0215   0.0017   1.0000
  15.000   1.3993   0.05389   0.04959  -0.0221   0.0017   1.0000
  15.200   1.3939   0.05720   0.05300  -0.0230   0.0016   1.0000
  15.400   1.3864   0.06097   0.05688  -0.0242   0.0016   1.0000
  15.600   1.3769   0.06522   0.06125  -0.0257   0.0016   1.0000
  15.800   1.3670   0.06975   0.06589  -0.0276   0.0015   1.0000
  16.000   1.3564   0.07462   0.07088  -0.0297   0.0015   1.0000
  16.200   1.3444   0.07993   0.07632  -0.0322   0.0016   1.0000
  16.400   1.3322   0.08553   0.08203  -0.0351   0.0016   1.0000
  16.600   1.3186   0.09164   0.08826  -0.0383   0.0015   1.0000
  16.800   1.3041   0.09811   0.09486  -0.0417   0.0016   1.0000
  17.000   1.2885   0.10496   0.10184  -0.0454   0.0016   1.0000
  17.200   1.2737   0.11185   0.10885  -0.0492   0.0016   1.0000
  17.400   1.2586   0.11895   0.11606  -0.0532   0.0017   1.0000
  17.600   1.2428   0.12631   0.12353  -0.0574   0.0017   1.0000
  17.800   1.2275   0.13374   0.13106  -0.0617   0.0016   1.0000
  18.000   1.2142   0.14087   0.13828  -0.0658   0.0016   1.0000
  18.200   1.2008   0.14807   0.14558  -0.0701   0.0016   1.0000
  18.400   1.1891   0.15492   0.15252  -0.0741   0.0017   1.0000
  18.600   1.1785   0.16165   0.15932  -0.0782   0.0017   1.0000
  18.800   1.1680   0.16851   0.16627  -0.0823   0.0017   1.0000
  19.000   1.1588   0.17518   0.17301  -0.0864   0.0017   1.0000
  19.200   1.1507   0.18160   0.17950  -0.0903   0.0017   1.0000
  19.400   1.1431   0.18802   0.18599  -0.0943   0.0018   1.0000
  19.600   1.1341   0.19510   0.19314  -0.0986   0.0018   1.0000
  19.800   1.1259   0.20208   0.20019  -0.1028   0.0018   1.0000
  20.000   1.1165   0.20980   0.20799  -0.1074   0.0018   1.0000
  20.200   1.1021   0.21980   0.21808  -0.1131   0.0019   1.0000
