  
       XFOIL         Version 6.99
  
 Calculated polar for: MH 117  9.8%                                    
  
 1 1 Reynolds number fixed          Mach number fixed         
  
 xtrf =   1.000 (top)        1.000 (bottom)  
 Mach =   0.000     Re =     1.600 e 6     Ncrit =   9.000
  
   alpha    CL        CD       CDp       CM     Top_Xtr  Bot_Xtr
  ------ -------- --------- --------- -------- -------- --------
  -5.000  -0.2246   0.00750   0.00223  -0.0727   0.8230   0.0235
  -4.800  -0.2032   0.00730   0.00205  -0.0725   0.8141   0.0365
  -4.600  -0.1813   0.00713   0.00191  -0.0724   0.8055   0.0470
  -4.400  -0.1595   0.00700   0.00179  -0.0723   0.7973   0.0567
  -4.200  -0.1374   0.00688   0.00167  -0.0722   0.7889   0.0662
  -4.000  -0.1152   0.00678   0.00157  -0.0722   0.7812   0.0745
  -3.800  -0.0932   0.00668   0.00147  -0.0721   0.7730   0.0858
  -3.600  -0.0710   0.00656   0.00138  -0.0720   0.7656   0.1000
  -3.400  -0.0490   0.00645   0.00130  -0.0720   0.7577   0.1152
  -3.200  -0.0266   0.00636   0.00122  -0.0719   0.7502   0.1268
  -2.800   0.0179   0.00619   0.00108  -0.0718   0.7349   0.1549
  -2.600   0.0400   0.00611   0.00102  -0.0718   0.7272   0.1718
  -2.400   0.0624   0.00603   0.00096  -0.0718   0.7191   0.1879
  -2.200   0.0847   0.00596   0.00091  -0.0717   0.7114   0.2074
  -2.000   0.1070   0.00589   0.00087  -0.0717   0.7032   0.2269
  -1.800   0.1293   0.00582   0.00083  -0.0717   0.6957   0.2461
  -1.600   0.1516   0.00577   0.00080  -0.0716   0.6877   0.2656
  -1.400   0.1740   0.00569   0.00077  -0.0716   0.6804   0.2901
  -1.200   0.1962   0.00562   0.00075  -0.0716   0.6726   0.3161
  -1.000   0.2186   0.00556   0.00073  -0.0716   0.6652   0.3397
  -0.800   0.2408   0.00551   0.00072  -0.0716   0.6574   0.3681
  -0.600   0.2632   0.00542   0.00071  -0.0716   0.6499   0.4006
  -0.400   0.2853   0.00537   0.00070  -0.0715   0.6421   0.4310
   0.000   0.3297   0.00521   0.00071  -0.0715   0.6264   0.5076
   0.200   0.3519   0.00513   0.00073  -0.0715   0.6181   0.5495
   0.400   0.3740   0.00506   0.00074  -0.0714   0.6102   0.5915
   0.600   0.3958   0.00500   0.00077  -0.0713   0.6015   0.6359
   0.800   0.4178   0.00492   0.00079  -0.0712   0.5931   0.6814
   1.000   0.4395   0.00486   0.00083  -0.0711   0.5844   0.7274
   1.200   0.4609   0.00479   0.00087  -0.0708   0.5751   0.7736
   1.400   0.4821   0.00473   0.00091  -0.0705   0.5660   0.8187
   1.600   0.5024   0.00468   0.00096  -0.0699   0.5560   0.8644
   1.800   0.5215   0.00464   0.00101  -0.0691   0.5456   0.9093
   2.000   0.5407   0.00462   0.00105  -0.0682   0.5351   0.9506
   2.200   0.5691   0.00467   0.00108  -0.0695   0.5220   0.9828
   2.400   0.5997   0.00476   0.00111  -0.0713   0.5066   1.0000
   2.600   0.6210   0.00486   0.00116  -0.0711   0.4926   1.0000
   2.800   0.6422   0.00498   0.00122  -0.0709   0.4764   1.0000
   3.000   0.6632   0.00513   0.00129  -0.0706   0.4563   1.0000
   3.200   0.6842   0.00529   0.00136  -0.0704   0.4345   1.0000
   3.400   0.7050   0.00548   0.00145  -0.0701   0.4104   1.0000
   3.600   0.7254   0.00570   0.00156  -0.0698   0.3827   1.0000
   3.800   0.7458   0.00594   0.00168  -0.0695   0.3548   1.0000
   4.000   0.7662   0.00618   0.00181  -0.0691   0.3292   1.0000
   4.200   0.7870   0.00638   0.00193  -0.0689   0.3081   1.0000
   4.400   0.8076   0.00660   0.00206  -0.0686   0.2872   1.0000
   4.600   0.8279   0.00685   0.00221  -0.0683   0.2634   1.0000
   4.800   0.8483   0.00709   0.00236  -0.0680   0.2419   1.0000
   5.000   0.8688   0.00732   0.00251  -0.0678   0.2234   1.0000
   5.200   0.8892   0.00756   0.00266  -0.0675   0.2058   1.0000
   5.400   0.9095   0.00781   0.00283  -0.0672   0.1860   1.0000
   5.600   0.9296   0.00807   0.00301  -0.0668   0.1687   1.0000
   5.800   0.9498   0.00831   0.00320  -0.0665   0.1538   1.0000
   6.000   0.9698   0.00859   0.00339  -0.0662   0.1374   1.0000
   6.200   0.9898   0.00885   0.00359  -0.0659   0.1232   1.0000
   6.400   1.0097   0.00912   0.00380  -0.0655   0.1096   1.0000
   6.600   1.0294   0.00940   0.00402  -0.0651   0.0964   1.0000
   6.800   1.0490   0.00969   0.00425  -0.0647   0.0846   1.0000
   7.000   1.0684   0.00999   0.00450  -0.0643   0.0736   1.0000
   7.200   1.0879   0.01028   0.00473  -0.0639   0.0647   1.0000
   7.400   1.1075   0.01055   0.00498  -0.0635   0.0568   1.0000
   7.600   1.1264   0.01089   0.00525  -0.0631   0.0476   1.0000
   7.800   1.1453   0.01121   0.00552  -0.0626   0.0409   1.0000
   8.000   1.1649   0.01146   0.00577  -0.0622   0.0366   1.0000
   8.200   1.1840   0.01176   0.00604  -0.0617   0.0326   1.0000
   8.400   1.2027   0.01207   0.00633  -0.0612   0.0279   1.0000
   8.600   1.2219   0.01234   0.00662  -0.0608   0.0255   1.0000
   8.800   1.2400   0.01270   0.00694  -0.0602   0.0215   1.0000
   9.000   1.2587   0.01299   0.00724  -0.0597   0.0191   1.0000
   9.200   1.2766   0.01334   0.00758  -0.0591   0.0165   1.0000
   9.400   1.2942   0.01372   0.00794  -0.0585   0.0136   1.0000
   9.600   1.3116   0.01409   0.00831  -0.0578   0.0115   1.0000
   9.800   1.3283   0.01452   0.00873  -0.0570   0.0090   1.0000
  10.000   1.3441   0.01500   0.00920  -0.0561   0.0065   1.0000
  10.200   1.3597   0.01550   0.00971  -0.0552   0.0046   1.0000
  10.400   1.3746   0.01602   0.01024  -0.0541   0.0032   1.0000
  10.600   1.3882   0.01663   0.01089  -0.0529   0.0022   1.0000
  10.800   1.4035   0.01707   0.01137  -0.0519   0.0020   1.0000
  11.000   1.4183   0.01753   0.01187  -0.0509   0.0018   1.0000
  11.200   1.4319   0.01805   0.01243  -0.0497   0.0017   1.0000
  11.400   1.4428   0.01874   0.01317  -0.0481   0.0013   1.0000
  11.600   1.4518   0.01940   0.01390  -0.0461   0.0011   1.0000
  11.800   1.4621   0.01986   0.01440  -0.0443   0.0011   1.0000
  12.000   1.4703   0.02044   0.01503  -0.0423   0.0011   1.0000
  12.200   1.4793   0.02098   0.01563  -0.0405   0.0010   1.0000
  12.400   1.4868   0.02164   0.01635  -0.0385   0.0009   1.0000
  12.600   1.4941   0.02233   0.01709  -0.0367   0.0009   1.0000
  12.800   1.5005   0.02310   0.01793  -0.0348   0.0008   1.0000
  13.000   1.5068   0.02390   0.01879  -0.0331   0.0008   1.0000
  13.200   1.5112   0.02487   0.01983  -0.0312   0.0007   1.0000
  13.400   1.5162   0.02585   0.02086  -0.0296   0.0007   1.0000
  13.600   1.5196   0.02698   0.02207  -0.0280   0.0007   1.0000
  13.800   1.5219   0.02826   0.02344  -0.0265   0.0007   1.0000
  14.000   1.5243   0.02959   0.02484  -0.0252   0.0007   1.0000
  14.200   1.5262   0.03103   0.02636  -0.0240   0.0006   1.0000
  14.400   1.5292   0.03243   0.02783  -0.0230   0.0007   1.0000
  14.600   1.5265   0.03443   0.02993  -0.0219   0.0006   1.0000
  14.800   1.5287   0.03605   0.03162  -0.0212   0.0006   1.0000
  15.000   1.5271   0.03810   0.03376  -0.0206   0.0006   1.0000
  15.200   1.5192   0.04096   0.03674  -0.0201   0.0006   1.0000
  15.400   1.5117   0.04391   0.03981  -0.0200   0.0006   1.0000
  15.600   1.5096   0.04636   0.04235  -0.0201   0.0006   1.0000
  15.800   1.4933   0.05071   0.04685  -0.0207   0.0006   1.0000
  16.000   1.4844   0.05434   0.05059  -0.0215   0.0005   1.0000
  16.200   1.4925   0.05575   0.05203  -0.0217   0.0006   1.0000
  16.400   1.4753   0.06086   0.05729  -0.0234   0.0006   1.0000
  16.600   1.4564   0.06659   0.06316  -0.0256   0.0005   1.0000
  16.800   1.4557   0.06964   0.06627  -0.0268   0.0006   1.0000
  17.000   1.4458   0.07434   0.07107  -0.0289   0.0006   1.0000
  17.200   1.4353   0.07936   0.07619  -0.0313   0.0006   1.0000
  17.400   1.4244   0.08462   0.08155  -0.0340   0.0006   1.0000
  17.600   1.4079   0.09118   0.08823  -0.0374   0.0006   1.0000
  17.800   1.3813   0.10009   0.09730  -0.0424   0.0006   1.0000
  18.000   1.3560   0.10908   0.10642  -0.0475   0.0006   1.0000
  18.200   1.3386   0.11659   0.11404  -0.0517   0.0006   1.0000
  18.400   1.3218   0.12409   0.12165  -0.0561   0.0006   1.0000
  18.600   1.3059   0.13148   0.12912  -0.0603   0.0006   1.0000
  18.800   1.2809   0.14120   0.13896  -0.0661   0.0006   1.0000
  19.000   1.2634   0.14931   0.14716  -0.0709   0.0006   1.0000
  19.200   1.2466   0.15732   0.15526  -0.0758   0.0006   1.0000
  19.400   1.2311   0.16518   0.16320  -0.0806   0.0006   1.0000
  19.600   1.2128   0.17399   0.17210  -0.0861   0.0006   1.0000
  19.800   1.2001   0.18146   0.17964  -0.0907   0.0007   1.0000
  20.000   1.1883   0.18884   0.18708  -0.0954   0.0007   1.0000
  20.200   1.1767   0.19630   0.19462  -0.1001   0.0007   1.0000
  20.400   1.1704   0.20232   0.20068  -0.1039   0.0007   1.0000
  20.600   1.1631   0.20884   0.20726  -0.1080   0.0007   1.0000
  20.800   1.1587   0.21452   0.21298  -0.1116   0.0007   1.0000
  21.000   1.1525   0.22098   0.21949  -0.1156   0.0007   1.0000
  21.200   1.1487   0.22671   0.22527  -0.1192   0.0007   1.0000
  21.400   1.1459   0.23223   0.23084  -0.1226   0.0007   1.0000
  21.600   1.1391   0.23953   0.23820  -0.1269   0.0007   1.0000
  21.800   1.1366   0.24530   0.24401  -0.1303   0.0008   1.0000
