  
       XFOIL         Version 6.99
  
 Calculated polar for: MH 117  9.8%                                    
  
 1 1 Reynolds number fixed          Mach number fixed         
  
 xtrf =   1.000 (top)        1.000 (bottom)  
 Mach =   0.000     Re =     1.700 e 6     Ncrit =   9.000
  
   alpha    CL        CD       CDp       CM     Top_Xtr  Bot_Xtr
  ------ -------- --------- --------- -------- -------- --------
  -5.000  -0.2250   0.00745   0.00220  -0.0726   0.8174   0.0209
  -4.800  -0.2035   0.00722   0.00201  -0.0724   0.8090   0.0340
  -4.600  -0.1818   0.00706   0.00187  -0.0723   0.8002   0.0450
  -4.400  -0.1597   0.00691   0.00174  -0.0722   0.7921   0.0554
  -4.200  -0.1378   0.00681   0.00163  -0.0721   0.7841   0.0643
  -4.000  -0.1155   0.00672   0.00153  -0.0721   0.7761   0.0714
  -3.800  -0.0934   0.00661   0.00144  -0.0720   0.7685   0.0831
  -3.600  -0.0712   0.00649   0.00135  -0.0720   0.7606   0.0968
  -3.400  -0.0491   0.00638   0.00127  -0.0719   0.7532   0.1116
  -3.200  -0.0268   0.00629   0.00118  -0.0719   0.7453   0.1240
  -3.000  -0.0045   0.00621   0.00111  -0.0718   0.7380   0.1368
  -2.800   0.0177   0.00613   0.00105  -0.0718   0.7301   0.1511
  -2.600   0.0401   0.00605   0.00099  -0.0718   0.7224   0.1673
  -2.200   0.0847   0.00589   0.00088  -0.0717   0.7065   0.2024
  -2.000   0.1069   0.00584   0.00084  -0.0717   0.6986   0.2218
  -1.800   0.1294   0.00577   0.00081  -0.0717   0.6907   0.2400
  -1.600   0.1517   0.00571   0.00077  -0.0716   0.6833   0.2597
  -1.400   0.1741   0.00564   0.00074  -0.0716   0.6755   0.2818
  -1.200   0.1964   0.00557   0.00072  -0.0716   0.6682   0.3081
  -1.000   0.2187   0.00551   0.00070  -0.0716   0.6603   0.3318
  -0.800   0.2411   0.00545   0.00069  -0.0716   0.6530   0.3581
  -0.600   0.2633   0.00539   0.00068  -0.0716   0.6450   0.3896
  -0.400   0.2857   0.00532   0.00068  -0.0716   0.6375   0.4200
  -0.200   0.3078   0.00527   0.00068  -0.0715   0.6293   0.4537
   0.000   0.3301   0.00518   0.00069  -0.0715   0.6216   0.4929
   0.200   0.3522   0.00511   0.00070  -0.0715   0.6135   0.5334
   0.400   0.3743   0.00504   0.00072  -0.0715   0.6051   0.5746
   0.600   0.3964   0.00497   0.00074  -0.0714   0.5969   0.6177
   0.800   0.4183   0.00491   0.00077  -0.0713   0.5879   0.6620
   1.000   0.4402   0.00483   0.00080  -0.0712   0.5793   0.7082
   1.200   0.4617   0.00478   0.00084  -0.0710   0.5702   0.7536
   1.600   0.5039   0.00467   0.00093  -0.0703   0.5502   0.8444
   1.800   0.5237   0.00462   0.00098  -0.0696   0.5400   0.8888
   2.000   0.5423   0.00461   0.00103  -0.0687   0.5290   0.9310
   2.200   0.5653   0.00463   0.00107  -0.0686   0.5162   0.9709
   2.400   0.5964   0.00471   0.00110  -0.0706   0.5005   0.9940
   2.600   0.6211   0.00481   0.00114  -0.0711   0.4857   1.0000
   2.800   0.6423   0.00493   0.00120  -0.0709   0.4683   1.0000
   3.000   0.6632   0.00509   0.00127  -0.0707   0.4467   1.0000
   3.200   0.6842   0.00525   0.00135  -0.0704   0.4250   1.0000
   3.400   0.7049   0.00545   0.00144  -0.0701   0.3999   1.0000
   3.600   0.7253   0.00568   0.00155  -0.0698   0.3718   1.0000
   3.800   0.7457   0.00592   0.00168  -0.0695   0.3442   1.0000
   4.000   0.7663   0.00614   0.00180  -0.0692   0.3202   1.0000
   4.200   0.7871   0.00634   0.00191  -0.0690   0.3003   1.0000
   4.400   0.8077   0.00657   0.00204  -0.0687   0.2783   1.0000
   4.600   0.8282   0.00680   0.00218  -0.0684   0.2556   1.0000
   5.000   0.8692   0.00726   0.00248  -0.0679   0.2176   1.0000
   5.200   0.8898   0.00748   0.00263  -0.0676   0.2002   1.0000
   5.600   0.9301   0.00800   0.00298  -0.0670   0.1638   1.0000
   5.800   0.9505   0.00823   0.00316  -0.0667   0.1496   1.0000
   6.000   0.9705   0.00849   0.00335  -0.0663   0.1336   1.0000
   6.200   0.9906   0.00875   0.00354  -0.0660   0.1199   1.0000
   6.400   1.0105   0.00902   0.00375  -0.0657   0.1061   1.0000
   6.600   1.0302   0.00931   0.00396  -0.0653   0.0931   1.0000
   6.800   1.0499   0.00959   0.00419  -0.0649   0.0816   1.0000
   7.000   1.0694   0.00989   0.00443  -0.0645   0.0709   1.0000
   7.200   1.0886   0.01020   0.00469  -0.0641   0.0604   1.0000
   7.400   1.1082   0.01047   0.00492  -0.0637   0.0536   1.0000
   7.600   1.1275   0.01077   0.00518  -0.0633   0.0458   1.0000
   7.800   1.1464   0.01109   0.00545  -0.0628   0.0386   1.0000
   8.000   1.1662   0.01133   0.00569  -0.0624   0.0355   1.0000
   8.200   1.1851   0.01164   0.00596  -0.0620   0.0310   1.0000
   8.400   1.2043   0.01191   0.00624  -0.0615   0.0273   1.0000
   8.600   1.2232   0.01221   0.00653  -0.0610   0.0243   1.0000
   8.800   1.2414   0.01256   0.00685  -0.0605   0.0201   1.0000
   9.000   1.2603   0.01284   0.00713  -0.0600   0.0184   1.0000
   9.200   1.2779   0.01322   0.00749  -0.0593   0.0154   1.0000
   9.400   1.2960   0.01355   0.00782  -0.0588   0.0131   1.0000
   9.600   1.3130   0.01396   0.00822  -0.0580   0.0106   1.0000
   9.800   1.3302   0.01435   0.00860  -0.0573   0.0084   1.0000
  10.000   1.3460   0.01484   0.00908  -0.0564   0.0059   1.0000
  10.200   1.3614   0.01535   0.00960  -0.0555   0.0040   1.0000
  10.400   1.3766   0.01586   0.01013  -0.0545   0.0029   1.0000
  10.600   1.3913   0.01638   0.01068  -0.0534   0.0022   1.0000
  10.800   1.4066   0.01683   0.01117  -0.0524   0.0019   1.0000
  11.000   1.4213   0.01730   0.01168  -0.0514   0.0017   1.0000
  11.200   1.4348   0.01784   0.01226  -0.0501   0.0015   1.0000
  11.400   1.4452   0.01859   0.01307  -0.0484   0.0012   1.0000
  11.600   1.4580   0.01903   0.01356  -0.0471   0.0011   1.0000
  11.800   1.4684   0.01951   0.01407  -0.0453   0.0010   1.0000
  12.000   1.4771   0.02005   0.01467  -0.0433   0.0010   1.0000
  12.200   1.4857   0.02060   0.01527  -0.0414   0.0009   1.0000
  12.400   1.4933   0.02124   0.01596  -0.0394   0.0008   1.0000
  12.600   1.5009   0.02189   0.01667  -0.0375   0.0008   1.0000
  12.800   1.5074   0.02264   0.01748  -0.0356   0.0008   1.0000
  13.000   1.5141   0.02340   0.01829  -0.0339   0.0007   1.0000
  13.200   1.5174   0.02442   0.01939  -0.0319   0.0007   1.0000
  13.400   1.5220   0.02540   0.02044  -0.0302   0.0006   1.0000
  13.600   1.5242   0.02661   0.02173  -0.0284   0.0006   1.0000
  13.800   1.5261   0.02790   0.02311  -0.0268   0.0006   1.0000
  14.000   1.5272   0.02932   0.02462  -0.0253   0.0006   1.0000
  14.200   1.5282   0.03083   0.02621  -0.0240   0.0006   1.0000
  14.400   1.5326   0.03209   0.02752  -0.0231   0.0006   1.0000
  14.600   1.5269   0.03435   0.02991  -0.0219   0.0006   1.0000
  14.800   1.5297   0.03591   0.03153  -0.0212   0.0006   1.0000
  15.000   1.5280   0.03797   0.03368  -0.0206   0.0006   1.0000
  15.200   1.5154   0.04132   0.03718  -0.0201   0.0005   1.0000
  15.400   1.5056   0.04457   0.04057  -0.0200   0.0005   1.0000
  15.600   1.5038   0.04701   0.04308  -0.0201   0.0005   1.0000
  15.800   1.4836   0.05191   0.04816  -0.0209   0.0005   1.0000
  16.000   1.4734   0.05578   0.05215  -0.0219   0.0005   1.0000
  16.200   1.4856   0.05666   0.05303  -0.0220   0.0005   1.0000
  16.400   1.4650   0.06237   0.05890  -0.0240   0.0005   1.0000
  16.600   1.4435   0.06862   0.06531  -0.0265   0.0005   1.0000
  16.800   1.4449   0.07140   0.06813  -0.0277   0.0005   1.0000
  17.000   1.4356   0.07610   0.07292  -0.0298   0.0005   1.0000
  17.200   1.4251   0.08119   0.07811  -0.0323   0.0005   1.0000
  17.400   1.4155   0.08630   0.08331  -0.0349   0.0005   1.0000
  17.600   1.3995   0.09283   0.08996  -0.0384   0.0005   1.0000
  17.800   1.3710   0.10225   0.09954  -0.0437   0.0005   1.0000
  18.000   1.3444   0.11163   0.10906  -0.0491   0.0005   1.0000
  18.200   1.3288   0.11882   0.11634  -0.0531   0.0005   1.0000
  18.400   1.3141   0.12588   0.12349  -0.0572   0.0005   1.0000
  18.600   1.3010   0.13267   0.13036  -0.0611   0.0005   1.0000
  18.800   1.2769   0.14221   0.14001  -0.0668   0.0005   1.0000
  19.000   1.2614   0.14985   0.14774  -0.0713   0.0006   1.0000
  19.200   1.2477   0.15712   0.15508  -0.0757   0.0006   1.0000
  19.400   1.2344   0.16439   0.16243  -0.0802   0.0006   1.0000
  19.600   1.2158   0.17324   0.17137  -0.0857   0.0006   1.0000
  19.800   1.2045   0.18032   0.17851  -0.0901   0.0006   1.0000
  20.000   1.1935   0.18744   0.18569  -0.0945   0.0006   1.0000
  20.200   1.1816   0.19494   0.19326  -0.0993   0.0006   1.0000
  20.400   1.1751   0.20099   0.19935  -0.1031   0.0006   1.0000
  20.600   1.1680   0.20741   0.20583  -0.1071   0.0006   1.0000
  20.800   1.1631   0.21317   0.21164  -0.1108   0.0006   1.0000
  21.000   1.1577   0.21928   0.21780  -0.1146   0.0007   1.0000
  21.200   1.1534   0.22515   0.22371  -0.1183   0.0007   1.0000
  21.400   1.1517   0.23017   0.22877  -0.1215   0.0007   1.0000
  21.600   1.1456   0.23708   0.23573  -0.1256   0.0007   1.0000
  21.800   1.1448   0.24194   0.24063  -0.1287   0.0007   1.0000
  22.000   1.1418   0.24792   0.24666  -0.1322   0.0007   1.0000
