  
       XFOIL         Version 6.99
  
 Calculated polar for: MH 117  9.8%                                    
  
 1 1 Reynolds number fixed          Mach number fixed         
  
 xtrf =   1.000 (top)        1.000 (bottom)  
 Mach =   0.000     Re =     1.500 e 6     Ncrit =   9.000
  
   alpha    CL        CD       CDp       CM     Top_Xtr  Bot_Xtr
  ------ -------- --------- --------- -------- -------- --------
  -5.000  -0.2242   0.00758   0.00228  -0.0728   0.8287   0.0257
  -4.800  -0.2027   0.00734   0.00210  -0.0726   0.8197   0.0401
  -4.600  -0.1810   0.00720   0.00196  -0.0725   0.8112   0.0502
  -4.400  -0.1590   0.00709   0.00184  -0.0724   0.8025   0.0577
  -4.200  -0.1370   0.00696   0.00172  -0.0723   0.7944   0.0678
  -4.000  -0.1150   0.00686   0.00161  -0.0722   0.7862   0.0774
  -3.800  -0.0929   0.00674   0.00152  -0.0722   0.7784   0.0897
  -3.600  -0.0710   0.00663   0.00142  -0.0721   0.7705   0.1037
  -3.400  -0.0487   0.00651   0.00134  -0.0720   0.7628   0.1184
  -3.200  -0.0266   0.00643   0.00125  -0.0720   0.7552   0.1302
  -3.000  -0.0042   0.00635   0.00118  -0.0719   0.7474   0.1432
  -2.800   0.0179   0.00626   0.00111  -0.0719   0.7400   0.1596
  -2.600   0.0402   0.00617   0.00105  -0.0718   0.7321   0.1762
  -2.400   0.0625   0.00610   0.00100  -0.0718   0.7244   0.1927
  -2.200   0.0847   0.00602   0.00094  -0.0718   0.7162   0.2130
  -2.000   0.1070   0.00594   0.00090  -0.0717   0.7085   0.2329
  -1.800   0.1292   0.00590   0.00086  -0.0717   0.7005   0.2518
  -1.600   0.1516   0.00581   0.00083  -0.0717   0.6929   0.2730
  -1.400   0.1738   0.00575   0.00080  -0.0716   0.6852   0.2982
  -1.200   0.1962   0.00567   0.00077  -0.0716   0.6777   0.3243
  -1.000   0.2184   0.00562   0.00076  -0.0716   0.6701   0.3492
  -0.800   0.2407   0.00554   0.00074  -0.0716   0.6624   0.3799
  -0.600   0.2629   0.00547   0.00073  -0.0716   0.6549   0.4124
  -0.400   0.2852   0.00540   0.00073  -0.0715   0.6469   0.4436
  -0.200   0.3073   0.00532   0.00073  -0.0715   0.6394   0.4827
   0.000   0.3294   0.00525   0.00074  -0.0715   0.6312   0.5239
   0.200   0.3515   0.00516   0.00076  -0.0714   0.6235   0.5668
   0.400   0.3734   0.00510   0.00077  -0.0713   0.6152   0.6098
   0.600   0.3955   0.00501   0.00080  -0.0713   0.6069   0.6552
   0.800   0.4171   0.00494   0.00083  -0.0711   0.5986   0.7019
   1.000   0.4387   0.00487   0.00086  -0.0709   0.5895   0.7482
   1.200   0.4600   0.00480   0.00091  -0.0706   0.5810   0.7952
   1.400   0.4807   0.00475   0.00095  -0.0702   0.5717   0.8408
   1.600   0.5006   0.00469   0.00100  -0.0695   0.5617   0.8853
   1.800   0.5191   0.00465   0.00104  -0.0684   0.5521   0.9302
   2.000   0.5421   0.00467   0.00108  -0.0684   0.5413   0.9686
   2.200   0.5737   0.00473   0.00110  -0.0705   0.5280   0.9921
   2.400   0.5994   0.00482   0.00114  -0.0712   0.5139   1.0000
   2.600   0.6207   0.00493   0.00118  -0.0710   0.5002   1.0000
   2.800   0.6421   0.00504   0.00124  -0.0708   0.4853   1.0000
   3.000   0.6632   0.00517   0.00131  -0.0706   0.4657   1.0000
   3.200   0.6841   0.00534   0.00138  -0.0703   0.4449   1.0000
   3.400   0.7050   0.00551   0.00147  -0.0700   0.4212   1.0000
   3.600   0.7255   0.00573   0.00157  -0.0697   0.3944   1.0000
   3.800   0.7459   0.00597   0.00169  -0.0694   0.3661   1.0000
   4.000   0.7662   0.00621   0.00182  -0.0691   0.3387   1.0000
   4.200   0.7867   0.00643   0.00195  -0.0688   0.3172   1.0000
   4.400   0.8074   0.00664   0.00208  -0.0685   0.2959   1.0000
   4.600   0.8278   0.00689   0.00222  -0.0682   0.2729   1.0000
   5.000   0.8685   0.00738   0.00253  -0.0676   0.2306   1.0000
   5.200   0.8889   0.00761   0.00269  -0.0674   0.2125   1.0000
   5.400   0.9089   0.00789   0.00287  -0.0670   0.1921   1.0000
   5.600   0.9291   0.00814   0.00304  -0.0667   0.1744   1.0000
   5.800   0.9494   0.00838   0.00323  -0.0664   0.1593   1.0000
   6.000   0.9693   0.00866   0.00343  -0.0661   0.1429   1.0000
   6.200   0.9890   0.00894   0.00364  -0.0657   0.1272   1.0000
   6.400   1.0088   0.00922   0.00385  -0.0653   0.1134   1.0000
   6.600   1.0284   0.00952   0.00408  -0.0649   0.0994   1.0000
   6.800   1.0482   0.00979   0.00430  -0.0646   0.0887   1.0000
   7.000   1.0678   0.01007   0.00454  -0.0642   0.0784   1.0000
   7.200   1.0872   0.01036   0.00479  -0.0638   0.0684   1.0000
   7.400   1.1064   0.01067   0.00505  -0.0633   0.0594   1.0000
   7.600   1.1251   0.01102   0.00533  -0.0628   0.0496   1.0000
   7.800   1.1443   0.01132   0.00559  -0.0624   0.0432   1.0000
   8.000   1.1633   0.01162   0.00587  -0.0619   0.0374   1.0000
   8.200   1.1827   0.01189   0.00613  -0.0615   0.0341   1.0000
   8.400   1.2011   0.01223   0.00643  -0.0610   0.0291   1.0000
   8.600   1.2203   0.01250   0.00672  -0.0605   0.0265   1.0000
   8.800   1.2386   0.01284   0.00704  -0.0600   0.0231   1.0000
   9.000   1.2568   0.01317   0.00736  -0.0594   0.0197   1.0000
   9.200   1.2751   0.01349   0.00768  -0.0588   0.0176   1.0000
   9.400   1.2921   0.01391   0.00807  -0.0581   0.0143   1.0000
   9.600   1.3099   0.01425   0.00842  -0.0575   0.0124   1.0000
   9.800   1.3261   0.01471   0.00887  -0.0567   0.0096   1.0000
  10.000   1.3425   0.01514   0.00930  -0.0559   0.0074   1.0000
  10.200   1.3578   0.01566   0.00982  -0.0549   0.0052   1.0000
  10.400   1.3722   0.01622   0.01040  -0.0538   0.0035   1.0000
  10.600   1.3860   0.01681   0.01101  -0.0526   0.0026   1.0000
  10.800   1.4000   0.01735   0.01161  -0.0514   0.0021   1.0000
  11.000   1.4146   0.01781   0.01210  -0.0503   0.0020   1.0000
  11.200   1.4283   0.01831   0.01265  -0.0491   0.0018   1.0000
  11.400   1.4407   0.01887   0.01325  -0.0478   0.0015   1.0000
  11.600   1.4469   0.01967   0.01413  -0.0454   0.0012   1.0000
  11.800   1.4548   0.02028   0.01480  -0.0432   0.0011   1.0000
  12.000   1.4624   0.02092   0.01550  -0.0411   0.0011   1.0000
  12.200   1.4721   0.02143   0.01605  -0.0395   0.0010   1.0000
  12.400   1.4795   0.02210   0.01678  -0.0376   0.0010   1.0000
  12.600   1.4865   0.02283   0.01758  -0.0357   0.0009   1.0000
  12.800   1.4926   0.02364   0.01845  -0.0339   0.0009   1.0000
  13.000   1.4985   0.02449   0.01937  -0.0322   0.0009   1.0000
  13.200   1.5027   0.02551   0.02045  -0.0304   0.0008   1.0000
  13.400   1.5075   0.02652   0.02153  -0.0289   0.0008   1.0000
  13.600   1.5111   0.02767   0.02276  -0.0274   0.0008   1.0000
  13.800   1.5131   0.02900   0.02418  -0.0259   0.0007   1.0000
  14.000   1.5159   0.03033   0.02558  -0.0247   0.0007   1.0000
  14.200   1.5180   0.03179   0.02711  -0.0235   0.0007   1.0000
  14.400   1.5195   0.03336   0.02876  -0.0226   0.0007   1.0000
  14.600   1.5189   0.03520   0.03069  -0.0217   0.0007   1.0000
  14.800   1.5201   0.03695   0.03252  -0.0210   0.0007   1.0000
  15.000   1.5180   0.03910   0.03476  -0.0205   0.0007   1.0000
  15.200   1.5138   0.04161   0.03737  -0.0202   0.0007   1.0000
  15.400   1.5087   0.04432   0.04018  -0.0201   0.0006   1.0000
  15.600   1.5054   0.04693   0.04288  -0.0202   0.0006   1.0000
  15.800   1.4929   0.05082   0.04691  -0.0207   0.0006   1.0000
  16.000   1.4854   0.05427   0.05046  -0.0215   0.0006   1.0000
  16.200   1.4873   0.05654   0.05280  -0.0220   0.0006   1.0000
  16.400   1.4742   0.06108   0.05747  -0.0235   0.0006   1.0000
  16.600   1.4584   0.06632   0.06284  -0.0255   0.0006   1.0000
  16.800   1.4542   0.06994   0.06653  -0.0270   0.0006   1.0000
  17.000   1.4429   0.07489   0.07159  -0.0292   0.0006   1.0000
  17.200   1.4315   0.08008   0.07688  -0.0317   0.0006   1.0000
  17.400   1.4181   0.08584   0.08276  -0.0346   0.0006   1.0000
  17.600   1.4003   0.09272   0.08977  -0.0383   0.0006   1.0000
  17.800   1.3766   0.10109   0.09828  -0.0429   0.0006   1.0000
  18.000   1.3540   0.10949   0.10681  -0.0477   0.0006   1.0000
  18.200   1.3335   0.11771   0.11515  -0.0524   0.0006   1.0000
  18.400   1.3139   0.12585   0.12339  -0.0571   0.0006   1.0000
  18.600   1.2948   0.13404   0.13169  -0.0618   0.0007   1.0000
  18.800   1.2702   0.14372   0.14149  -0.0676   0.0007   1.0000
  19.000   1.2505   0.15242   0.15029  -0.0728   0.0007   1.0000
  19.200   1.2330   0.16069   0.15865  -0.0779   0.0007   1.0000
  19.400   1.2166   0.16890   0.16694  -0.0829   0.0007   1.0000
  19.600   1.2000   0.17739   0.17552  -0.0882   0.0007   1.0000
  19.800   1.1893   0.18440   0.18259  -0.0926   0.0007   1.0000
  20.000   1.1790   0.19139   0.18965  -0.0970   0.0007   1.0000
  20.200   1.1686   0.19859   0.19691  -0.1015   0.0008   1.0000
  20.400   1.1631   0.20445   0.20282  -0.1052   0.0008   1.0000
  20.600   1.1564   0.21087   0.20929  -0.1092   0.0008   1.0000
  20.800   1.1523   0.21654   0.21501  -0.1127   0.0008   1.0000
  21.000   1.1460   0.22314   0.22166  -0.1168   0.0008   1.0000
  21.200   1.1420   0.22904   0.22761  -0.1204   0.0008   1.0000
  21.400   1.1353   0.23631   0.23494  -0.1247   0.0008   1.0000
  21.600   1.1307   0.24294   0.24163  -0.1286   0.0008   1.0000
