  
       XFOIL         Version 6.99
  
 Calculated polar for: MH 117  9.8%                                    
  
 1 1 Reynolds number fixed          Mach number fixed         
  
 xtrf =   1.000 (top)        1.000 (bottom)  
 Mach =   0.000     Re =     1.800 e 6     Ncrit =   9.000
  
   alpha    CL        CD       CDp       CM     Top_Xtr  Bot_Xtr
  ------ -------- --------- --------- -------- -------- --------
  -5.000  -0.2254   0.00742   0.00218  -0.0724   0.8125   0.0181
  -4.800  -0.2038   0.00715   0.00197  -0.0723   0.8038   0.0321
  -4.600  -0.1820   0.00699   0.00183  -0.0722   0.7956   0.0435
  -4.400  -0.1601   0.00685   0.00170  -0.0722   0.7872   0.0535
  -4.200  -0.1379   0.00674   0.00159  -0.0721   0.7795   0.0622
  -3.800  -0.0936   0.00653   0.00140  -0.0720   0.7639   0.0816
  -3.600  -0.0715   0.00643   0.00132  -0.0719   0.7562   0.0951
  -3.400  -0.0492   0.00631   0.00123  -0.0719   0.7486   0.1096
  -3.200  -0.0270   0.00623   0.00115  -0.0718   0.7410   0.1222
  -3.000  -0.0046   0.00614   0.00108  -0.0718   0.7333   0.1344
  -2.800   0.0176   0.00607   0.00102  -0.0718   0.7258   0.1481
  -2.600   0.0400   0.00599   0.00096  -0.0717   0.7177   0.1644
  -2.400   0.0623   0.00592   0.00091  -0.0717   0.7101   0.1793
  -2.200   0.0846   0.00585   0.00086  -0.0717   0.7018   0.1970
  -2.000   0.1070   0.00577   0.00082  -0.0717   0.6942   0.2172
  -1.800   0.1293   0.00572   0.00078  -0.0716   0.6862   0.2351
  -1.600   0.1518   0.00566   0.00075  -0.0717   0.6788   0.2536
  -1.400   0.1740   0.00560   0.00072  -0.0716   0.6711   0.2752
  -1.200   0.1965   0.00552   0.00070  -0.0716   0.6636   0.3008
  -0.800   0.2412   0.00541   0.00067  -0.0716   0.6484   0.3490
  -0.600   0.2635   0.00535   0.00066  -0.0716   0.6409   0.3793
  -0.400   0.2858   0.00529   0.00066  -0.0716   0.6328   0.4096
  -0.200   0.3081   0.00523   0.00066  -0.0716   0.6251   0.4411
   0.000   0.3303   0.00516   0.00067  -0.0716   0.6168   0.4793
   0.200   0.3526   0.00508   0.00068  -0.0716   0.6090   0.5186
   0.400   0.3746   0.00503   0.00069  -0.0715   0.6004   0.5591
   0.600   0.3968   0.00495   0.00071  -0.0715   0.5920   0.6008
   0.800   0.4188   0.00489   0.00074  -0.0714   0.5834   0.6441
   1.000   0.4406   0.00483   0.00077  -0.0713   0.5742   0.6898
   1.200   0.4624   0.00476   0.00081  -0.0711   0.5651   0.7346
   1.400   0.4839   0.00472   0.00085  -0.0709   0.5552   0.7788
   1.600   0.5049   0.00467   0.00090  -0.0706   0.5447   0.8254
   2.000   0.5447   0.00459   0.00101  -0.0693   0.5230   0.9124
   2.200   0.5636   0.00459   0.00105  -0.0683   0.5108   0.9556
   2.400   0.5927   0.00466   0.00108  -0.0698   0.4949   0.9854
   2.600   0.6213   0.00476   0.00112  -0.0712   0.4784   1.0000
   3.000   0.6633   0.00505   0.00126  -0.0707   0.4380   1.0000
   3.200   0.6842   0.00523   0.00134  -0.0704   0.4155   1.0000
   3.400   0.7048   0.00544   0.00144  -0.0701   0.3893   1.0000
   3.600   0.7252   0.00567   0.00154  -0.0698   0.3613   1.0000
   3.800   0.7457   0.00590   0.00167  -0.0695   0.3343   1.0000
   4.000   0.7665   0.00610   0.00178  -0.0693   0.3127   1.0000
   4.200   0.7873   0.00631   0.00190  -0.0690   0.2924   1.0000
   4.400   0.8079   0.00652   0.00203  -0.0688   0.2709   1.0000
   4.600   0.8282   0.00678   0.00217  -0.0685   0.2478   1.0000
   4.800   0.8490   0.00699   0.00231  -0.0682   0.2292   1.0000
   5.000   0.8696   0.00720   0.00246  -0.0680   0.2118   1.0000
   5.200   0.8900   0.00744   0.00261  -0.0677   0.1940   1.0000
   5.400   0.9103   0.00769   0.00278  -0.0674   0.1750   1.0000
   5.600   0.9307   0.00792   0.00294  -0.0671   0.1599   1.0000
   5.800   0.9511   0.00815   0.00312  -0.0668   0.1456   1.0000
   6.000   0.9710   0.00843   0.00331  -0.0665   0.1293   1.0000
   6.200   0.9912   0.00868   0.00350  -0.0661   0.1161   1.0000
   6.400   1.0109   0.00897   0.00372  -0.0658   0.1015   1.0000
   6.600   1.0306   0.00925   0.00393  -0.0654   0.0888   1.0000
   6.800   1.0504   0.00952   0.00415  -0.0650   0.0778   1.0000
   7.000   1.0702   0.00980   0.00438  -0.0647   0.0682   1.0000
   7.200   1.0896   0.01009   0.00462  -0.0643   0.0588   1.0000
   7.400   1.1088   0.01040   0.00488  -0.0638   0.0500   1.0000
   7.600   1.1285   0.01067   0.00511  -0.0634   0.0441   1.0000
   7.800   1.1477   0.01097   0.00538  -0.0630   0.0375   1.0000
   8.000   1.1673   0.01121   0.00561  -0.0626   0.0344   1.0000
   8.200   1.1862   0.01153   0.00589  -0.0621   0.0293   1.0000
   8.400   1.2057   0.01178   0.00615  -0.0618   0.0266   1.0000
   8.600   1.2243   0.01210   0.00645  -0.0612   0.0231   1.0000
   8.800   1.2430   0.01241   0.00675  -0.0607   0.0196   1.0000
   9.000   1.2616   0.01271   0.00705  -0.0602   0.0175   1.0000
   9.200   1.2794   0.01309   0.00740  -0.0596   0.0142   1.0000
   9.400   1.2976   0.01340   0.00772  -0.0590   0.0125   1.0000
   9.600   1.3145   0.01384   0.00813  -0.0583   0.0096   1.0000
   9.800   1.3318   0.01421   0.00850  -0.0576   0.0077   1.0000
  10.000   1.3478   0.01469   0.00898  -0.0567   0.0054   1.0000
  10.200   1.3634   0.01518   0.00948  -0.0558   0.0037   1.0000
  10.400   1.3783   0.01572   0.01003  -0.0547   0.0025   1.0000
  10.600   1.3940   0.01616   0.01051  -0.0538   0.0021   1.0000
  10.800   1.4093   0.01662   0.01100  -0.0528   0.0018   1.0000
  11.000   1.4238   0.01711   0.01153  -0.0517   0.0016   1.0000
  11.200   1.4367   0.01771   0.01217  -0.0504   0.0013   1.0000
  11.400   1.4497   0.01826   0.01277  -0.0491   0.0011   1.0000
  11.600   1.4630   0.01872   0.01327  -0.0479   0.0010   1.0000
  11.800   1.4738   0.01921   0.01380  -0.0462   0.0009   1.0000
  12.000   1.4830   0.01972   0.01436  -0.0442   0.0010   1.0000
  12.200   1.4914   0.02027   0.01496  -0.0422   0.0008   1.0000
  12.400   1.4989   0.02090   0.01564  -0.0402   0.0008   1.0000
  12.600   1.5064   0.02154   0.01634  -0.0383   0.0007   1.0000
  12.800   1.5127   0.02229   0.01715  -0.0363   0.0007   1.0000
  13.000   1.5194   0.02303   0.01795  -0.0345   0.0007   1.0000
  13.200   1.5203   0.02422   0.01923  -0.0321   0.0006   1.0000
  13.400   1.5238   0.02526   0.02035  -0.0303   0.0006   1.0000
  13.600   1.5242   0.02660   0.02179  -0.0284   0.0005   1.0000
  13.800   1.5251   0.02796   0.02324  -0.0267   0.0005   1.0000
  14.000   1.5246   0.02952   0.02490  -0.0251   0.0005   1.0000
  14.200   1.5242   0.03114   0.02662  -0.0237   0.0005   1.0000
  14.400   1.5295   0.03233   0.02785  -0.0229   0.0005   1.0000
  14.600   1.5205   0.03493   0.03060  -0.0216   0.0005   1.0000
  14.800   1.5234   0.03649   0.03222  -0.0210   0.0005   1.0000
  15.000   1.5211   0.03864   0.03446  -0.0204   0.0005   1.0000
  15.200   1.5039   0.04255   0.03855  -0.0200   0.0005   1.0000
  15.400   1.4918   0.04614   0.04227  -0.0201   0.0005   1.0000
  15.600   1.4899   0.04866   0.04487  -0.0203   0.0005   1.0000
  15.800   1.4658   0.05422   0.05063  -0.0215   0.0005   1.0000
  16.000   1.4546   0.05839   0.05491  -0.0227   0.0005   1.0000
  16.200   1.4696   0.05890   0.05539  -0.0228   0.0005   1.0000
  16.400   1.4461   0.06524   0.06191  -0.0252   0.0005   1.0000
  16.600   1.4227   0.07203   0.06886  -0.0282   0.0005   1.0000
  16.800   1.4253   0.07471   0.07158  -0.0293   0.0005   1.0000
  17.000   1.4164   0.07950   0.07647  -0.0317   0.0005   1.0000
  17.200   1.4059   0.08475   0.08180  -0.0343   0.0005   1.0000
  17.400   1.3969   0.08988   0.08702  -0.0370   0.0005   1.0000
  17.600   1.3814   0.09651   0.09376  -0.0406   0.0005   1.0000
  17.800   1.3518   0.10633   0.10373  -0.0462   0.0005   1.0000
  18.000   1.3255   0.11583   0.11337  -0.0516   0.0005   1.0000
  18.200   1.3113   0.12280   0.12042  -0.0556   0.0005   1.0000
  18.400   1.2984   0.12955   0.12725  -0.0594   0.0005   1.0000
  18.600   1.2869   0.13605   0.13383  -0.0632   0.0005   1.0000
  18.800   1.2644   0.14534   0.14322  -0.0687   0.0005   1.0000
  19.000   1.2512   0.15243   0.15039  -0.0730   0.0005   1.0000
  19.200   1.2400   0.15911   0.15713  -0.0770   0.0005   1.0000
  19.400   1.2290   0.16587   0.16395  -0.0811   0.0005   1.0000
  19.600   1.2116   0.17447   0.17264  -0.0865   0.0005   1.0000
  19.800   1.2021   0.18107   0.17930  -0.0906   0.0005   1.0000
  20.000   1.1927   0.18777   0.18605  -0.0948   0.0006   1.0000
  20.200   1.1812   0.19517   0.19351  -0.0994   0.0006   1.0000
  20.400   1.1756   0.20092   0.19931  -0.1031   0.0006   1.0000
  20.600   1.1693   0.20709   0.20552  -0.1070   0.0006   1.0000
  20.800   1.1645   0.21283   0.21131  -0.1106   0.0006   1.0000
  21.000   1.1599   0.21865   0.21717  -0.1143   0.0006   1.0000
  21.200   1.1552   0.22460   0.22317  -0.1180   0.0006   1.0000
  21.400   1.1542   0.22936   0.22796  -0.1210   0.0006   1.0000
  21.600   1.1486   0.23599   0.23464  -0.1251   0.0006   1.0000
  21.800   1.1488   0.24044   0.23912  -0.1279   0.0006   1.0000
  22.000   1.1482   0.24529   0.24400  -0.1309   0.0006   1.0000
  22.200   1.1427   0.25248   0.25125  -0.1350   0.0006   1.0000
  22.400   1.1391   0.25909   0.25792  -0.1388   0.0007   1.0000
