  
       XFOIL         Version 6.99
  
 Calculated polar for: MH 114  13.02%                                  
  
 1 1 Reynolds number fixed          Mach number fixed         
  
 xtrf =   1.000 (top)        1.000 (bottom)  
 Mach =   0.000     Re =     1.800 e 6     Ncrit =   9.000
  
   alpha    CL        CD       CDp       CM     Top_Xtr  Bot_Xtr
  ------ -------- --------- --------- -------- -------- --------
  -5.000   0.3207   0.00801   0.00298  -0.1934   0.7391   0.0061
  -4.800   0.3437   0.00778   0.00270  -0.1936   0.7347   0.0066
  -4.400   0.3893   0.00753   0.00239  -0.1938   0.7262   0.0081
  -4.200   0.4123   0.00741   0.00224  -0.1939   0.7219   0.0087
  -4.000   0.4351   0.00728   0.00209  -0.1940   0.7173   0.0102
  -3.800   0.4577   0.00719   0.00196  -0.1941   0.7127   0.0121
  -3.600   0.4810   0.00708   0.00185  -0.1943   0.7088   0.0151
  -3.400   0.5039   0.00699   0.00176  -0.1944   0.7040   0.0192
  -3.200   0.5263   0.00693   0.00169  -0.1945   0.6991   0.0245
  -3.000   0.5493   0.00685   0.00163  -0.1946   0.6948   0.0310
  -2.800   0.5723   0.00677   0.00156  -0.1948   0.6902   0.0385
  -2.600   0.5948   0.00671   0.00151  -0.1949   0.6850   0.0482
  -2.400   0.6175   0.00664   0.00147  -0.1950   0.6801   0.0634
  -2.200   0.6407   0.00653   0.00143  -0.1952   0.6754   0.0848
  -2.000   0.6633   0.00645   0.00140  -0.1954   0.6699   0.1096
  -1.800   0.6858   0.00639   0.00138  -0.1955   0.6646   0.1375
  -1.600   0.7089   0.00631   0.00137  -0.1957   0.6596   0.1653
  -1.400   0.7314   0.00626   0.00136  -0.1958   0.6535   0.1949
  -1.200   0.7538   0.00622   0.00137  -0.1959   0.6480   0.2265
  -1.000   0.7767   0.00617   0.00137  -0.1961   0.6424   0.2539
  -0.800   0.7987   0.00617   0.00139  -0.1961   0.6359   0.2823
  -0.600   0.8213   0.00614   0.00141  -0.1962   0.6303   0.3106
  -0.400   0.8438   0.00611   0.00143  -0.1963   0.6239   0.3474
  -0.200   0.8656   0.00612   0.00147  -0.1963   0.6173   0.3792
   0.000   0.8883   0.00610   0.00150  -0.1964   0.6112   0.4099
   0.200   0.9100   0.00613   0.00155  -0.1963   0.6039   0.4382
   0.400   0.9323   0.00613   0.00159  -0.1964   0.5978   0.4678
   0.600   0.9541   0.00616   0.00164  -0.1963   0.5905   0.4944
   0.800   0.9758   0.00620   0.00170  -0.1963   0.5836   0.5215
   1.000   0.9977   0.00622   0.00175  -0.1962   0.5760   0.5486
   1.200   1.0190   0.00628   0.00182  -0.1961   0.5689   0.5740
   1.400   1.0409   0.00632   0.00188  -0.1960   0.5614   0.5994
   1.800   1.0836   0.00643   0.00203  -0.1958   0.5460   0.6513
   2.200   1.1257   0.00656   0.00220  -0.1954   0.5298   0.7031
   2.400   1.1462   0.00665   0.00230  -0.1951   0.5215   0.7297
   2.600   1.1672   0.00671   0.00239  -0.1949   0.5131   0.7584
   2.800   1.1874   0.00679   0.00250  -0.1946   0.5048   0.7915
   3.000   1.2075   0.00684   0.00260  -0.1942   0.4961   0.8291
   3.200   1.2258   0.00689   0.00272  -0.1934   0.4877   0.8801
   3.400   1.2396   0.00683   0.00278  -0.1915   0.4797   1.0000
   3.600   1.2597   0.00697   0.00288  -0.1911   0.4710   1.0000
   3.800   1.2795   0.00712   0.00298  -0.1907   0.4619   1.0000
   4.000   1.2995   0.00727   0.00308  -0.1904   0.4535   1.0000
   4.200   1.3186   0.00744   0.00321  -0.1899   0.4440   1.0000
   4.400   1.3385   0.00758   0.00331  -0.1895   0.4358   1.0000
   4.600   1.3571   0.00777   0.00345  -0.1889   0.4263   1.0000
   4.800   1.3767   0.00791   0.00356  -0.1884   0.4183   1.0000
   5.000   1.3950   0.00810   0.00371  -0.1878   0.4095   1.0000
   5.200   1.4136   0.00826   0.00384  -0.1871   0.4010   1.0000
   5.400   1.4310   0.00844   0.00398  -0.1863   0.3927   1.0000
   5.600   1.4480   0.00862   0.00412  -0.1854   0.3839   1.0000
   5.800   1.4650   0.00881   0.00428  -0.1844   0.3759   1.0000
   6.000   1.4813   0.00901   0.00444  -0.1834   0.3675   1.0000
   6.200   1.4979   0.00920   0.00460  -0.1824   0.3598   1.0000
   6.400   1.5135   0.00943   0.00479  -0.1812   0.3507   1.0000
   6.600   1.5302   0.00962   0.00496  -0.1802   0.3432   1.0000
   6.800   1.5453   0.00987   0.00517  -0.1790   0.3344   1.0000
   7.000   1.5617   0.01007   0.00535  -0.1780   0.3273   1.0000
   7.200   1.5765   0.01033   0.00558  -0.1768   0.3193   1.0000
   7.400   1.5922   0.01057   0.00579  -0.1757   0.3110   1.0000
   7.800   1.6218   0.01111   0.00627  -0.1732   0.2949   1.0000
   8.000   1.6350   0.01144   0.00656  -0.1718   0.2860   1.0000
   8.200   1.6498   0.01172   0.00682  -0.1706   0.2780   1.0000
   8.400   1.6632   0.01206   0.00713  -0.1692   0.2700   1.0000
   8.600   1.6770   0.01237   0.00742  -0.1678   0.2624   1.0000
   8.800   1.6896   0.01275   0.00776  -0.1663   0.2538   1.0000
   9.000   1.7018   0.01315   0.00814  -0.1648   0.2446   1.0000
   9.200   1.7144   0.01353   0.00850  -0.1634   0.2369   1.0000
   9.400   1.7256   0.01400   0.00892  -0.1617   0.2282   1.0000
   9.600   1.7376   0.01442   0.00933  -0.1602   0.2198   1.0000
   9.800   1.7479   0.01495   0.00981  -0.1585   0.2115   1.0000
  10.000   1.7598   0.01540   0.01026  -0.1570   0.2040   1.0000
  10.200   1.7689   0.01600   0.01082  -0.1552   0.1946   1.0000
  10.400   1.7780   0.01662   0.01140  -0.1534   0.1856   1.0000
  10.600   1.7884   0.01719   0.01195  -0.1519   0.1784   1.0000
  10.800   1.7964   0.01791   0.01263  -0.1500   0.1694   1.0000
  11.000   1.8062   0.01853   0.01324  -0.1485   0.1626   1.0000
  11.200   1.8137   0.01932   0.01399  -0.1466   0.1538   1.0000
  11.400   1.8206   0.02015   0.01479  -0.1448   0.1455   1.0000
  11.600   1.8291   0.02091   0.01554  -0.1432   0.1382   1.0000
  12.000   1.8436   0.02265   0.01725  -0.1399   0.1245   1.0000
  12.200   1.8480   0.02375   0.01830  -0.1380   0.1164   1.0000
  12.400   1.8565   0.02460   0.01916  -0.1366   0.1114   1.0000
  12.600   1.8603   0.02579   0.02032  -0.1348   0.1035   1.0000
  12.800   1.8642   0.02702   0.02153  -0.1331   0.0959   1.0000
  13.000   1.8695   0.02818   0.02267  -0.1315   0.0894   1.0000
  13.200   1.8722   0.02958   0.02404  -0.1298   0.0828   1.0000
  13.400   1.8766   0.03088   0.02533  -0.1284   0.0765   1.0000
  13.600   1.8788   0.03240   0.02683  -0.1268   0.0701   1.0000
  13.800   1.8832   0.03377   0.02820  -0.1255   0.0657   1.0000
  14.000   1.8855   0.03537   0.02979  -0.1241   0.0603   1.0000
  14.200   1.8874   0.03704   0.03146  -0.1227   0.0552   1.0000
  14.400   1.8906   0.03864   0.03306  -0.1215   0.0515   1.0000
  14.600   1.8943   0.04022   0.03466  -0.1205   0.0481   1.0000
  14.800   1.8946   0.04217   0.03661  -0.1193   0.0440   1.0000
  15.000   1.8988   0.04380   0.03826  -0.1184   0.0413   1.0000
  15.200   1.8985   0.04591   0.04038  -0.1173   0.0378   1.0000
  15.400   1.9012   0.04776   0.04226  -0.1165   0.0353   1.0000
  15.600   1.9017   0.04987   0.04438  -0.1156   0.0325   1.0000
  15.800   1.9022   0.05205   0.04659  -0.1149   0.0299   1.0000
  16.000   1.9030   0.05424   0.04880  -0.1142   0.0277   1.0000
  16.200   1.9022   0.05666   0.05124  -0.1136   0.0253   1.0000
  16.400   1.9021   0.05905   0.05367  -0.1131   0.0234   1.0000
  16.600   1.9001   0.06172   0.05637  -0.1126   0.0212   1.0000
  16.800   1.9004   0.06414   0.05883  -0.1123   0.0197   1.0000
  17.000   1.8978   0.06700   0.06172  -0.1120   0.0181   1.0000
  17.200   1.8962   0.06976   0.06453  -0.1119   0.0166   1.0000
  17.400   1.8945   0.07260   0.06741  -0.1118   0.0152   1.0000
  17.600   1.8905   0.07582   0.07067  -0.1118   0.0139   1.0000
  17.800   1.8886   0.07876   0.07367  -0.1119   0.0129   1.0000
  18.000   1.8849   0.08199   0.07695  -0.1121   0.0117   1.0000
  18.200   1.8811   0.08531   0.08032  -0.1124   0.0108   1.0000
  18.400   1.8776   0.08864   0.08371  -0.1127   0.0100   1.0000
  18.600   1.8729   0.09217   0.08730  -0.1132   0.0092   1.0000
  18.800   1.8689   0.09564   0.09082  -0.1138   0.0085   1.0000
  19.000   1.8646   0.09918   0.09442  -0.1145   0.0079   1.0000
  19.200   1.8588   0.10299   0.09829  -0.1153   0.0072   1.0000
  19.400   1.8539   0.10667   0.10203  -0.1161   0.0067   1.0000
  19.600   1.8494   0.11034   0.10576  -0.1171   0.0063   1.0000
  19.800   1.8441   0.11415   0.10964  -0.1182   0.0058   1.0000
  20.000   1.8382   0.11806   0.11361  -0.1193   0.0053   1.0000
  20.200   1.8329   0.12189   0.11750  -0.1206   0.0050   1.0000
  20.400   1.8274   0.12576   0.12144  -0.1219   0.0046   1.0000
  20.600   1.8225   0.12953   0.12527  -0.1233   0.0042   1.0000
  20.800   1.8157   0.13366   0.12947  -0.1249   0.0039   1.0000
  21.000   1.8098   0.13765   0.13352  -0.1266   0.0035   1.0000
  21.200   1.8056   0.14130   0.13724  -0.1281   0.0033   1.0000
  21.400   1.7998   0.14528   0.14128  -0.1300   0.0031   1.0000
  21.600   1.7938   0.14929   0.14536  -0.1319   0.0029   1.0000
  21.800   1.7882   0.15321   0.14933  -0.1338   0.0026   1.0000
  22.000   1.7827   0.15711   0.15330  -0.1358   0.0024   1.0000
  22.200   1.7773   0.16101   0.15726  -0.1379   0.0022   1.0000
  22.400   1.7731   0.16468   0.16100  -0.1399   0.0021   1.0000
  22.600   1.7658   0.16897   0.16535  -0.1423   0.0019   1.0000
  22.800   1.7604   0.17289   0.16933  -0.1446   0.0016   1.0000
  23.000   1.7553   0.17677   0.17328  -0.1470   0.0016   1.0000
  23.200   1.7514   0.18039   0.17695  -0.1492   0.0015   1.0000
  23.400   1.7457   0.18440   0.18103  -0.1518   0.0014   1.0000
  23.600   1.7394   0.18854   0.18524  -0.1545   0.0012   1.0000
  23.800   1.7338   0.19252   0.18927  -0.1571   0.0011   1.0000
  24.000   1.7263   0.19693   0.19375  -0.1601   0.0010   1.0000
  24.200   1.7233   0.20038   0.19726  -0.1625   0.0009   1.0000
  24.400   1.7168   0.20459   0.20153  -0.1655   0.0008   1.0000
  24.600   1.7135   0.20812   0.20512  -0.1680   0.0008   1.0000
  24.800   1.7059   0.21255   0.20961  -0.1713   0.0007   1.0000
  25.000   1.6993   0.21679   0.21392  -0.1745   0.0006   1.0000
  25.200   1.6957   0.22040   0.21759  -0.1772   0.0006   1.0000
  25.400   1.6867   0.22523   0.22249  -0.1809   0.0005   1.0000
  25.600   1.6832   0.22884   0.22615  -0.1837   0.0005   1.0000
  25.800   1.6754   0.23349   0.23087  -0.1873   0.0004   1.0000
  26.000   1.6713   0.23725   0.23469  -0.1903   0.0004   1.0000
  26.200   1.6654   0.24148   0.23899  -0.1937   0.0004   1.0000
  26.400   1.6605   0.24549   0.24305  -0.1969   0.0003   1.0000
  26.600   1.6544   0.24985   0.24748  -0.2004   0.0003   1.0000
  26.800   1.6515   0.25335   0.25104  -0.2033   0.0004   1.0000
  27.000   1.6445   0.25799   0.25574  -0.2071   0.0003   1.0000
  27.200   1.6400   0.26197   0.25977  -0.2104   0.0003   1.0000
  27.400   1.6329   0.26670   0.26456  -0.2142   0.0003   1.0000
  27.600   1.6297   0.27035   0.26826  -0.2173   0.0003   1.0000
  27.800   1.6175   0.27665   0.27464  -0.2223   0.0002   1.0000
  28.000   1.6187   0.27909   0.27712  -0.2245   0.0002   1.0000
  28.200   1.6087   0.28485   0.28296  -0.2292   0.0002   1.0000
  28.400   1.6081   0.28786   0.28601  -0.2319   0.0002   1.0000
  28.600   1.5993   0.29340   0.29161  -0.2363   0.0002   1.0000
  28.800   1.5977   0.29674   0.29499  -0.2393   0.0002   1.0000
  29.000   1.5877   0.30290   0.30123  -0.2441   0.0002   1.0000
  29.200   1.5884   0.30549   0.30385  -0.2465   0.0002   1.0000
  29.400   1.5786   0.31182   0.31025  -0.2514   0.0001   1.0000
  29.600   1.5767   0.31538   0.31385  -0.2545   0.0001   1.0000
  29.800   1.5735   0.31950   0.31802  -0.2579   0.0001   1.0000
  30.000   1.5713   0.32319   0.32175  -0.2610   0.0001   1.0000
