  
       XFOIL         Version 6.99
  
 Calculated polar for: MH 114  13.02%                                  
  
 1 1 Reynolds number fixed          Mach number fixed         
  
 xtrf =   1.000 (top)        1.000 (bottom)  
 Mach =   0.000     Re =     0.400 e 6     Ncrit =   9.000
  
   alpha    CL        CD       CDp       CM     Top_Xtr  Bot_Xtr
  ------ -------- --------- --------- -------- -------- --------
  -5.000   0.3080   0.01465   0.00847  -0.1913   0.8262   0.0168
  -4.800   0.3286   0.01389   0.00763  -0.1912   0.8216   0.0174
  -4.600   0.3502   0.01342   0.00715  -0.1912   0.8170   0.0184
  -4.400   0.3735   0.01306   0.00670  -0.1914   0.8130   0.0199
  -4.000   0.4188   0.01240   0.00595  -0.1917   0.8046   0.0244
  -3.800   0.4414   0.01193   0.00547  -0.1919   0.8000   0.0272
  -3.600   0.4655   0.01153   0.00503  -0.1923   0.7960   0.0319
  -3.400   0.4894   0.01128   0.00476  -0.1927   0.7921   0.0400
  -3.200   0.5111   0.01100   0.00449  -0.1927   0.7871   0.0512
  -3.000   0.5343   0.01071   0.00425  -0.1929   0.7826   0.0682
  -2.800   0.5587   0.01046   0.00403  -0.1934   0.7787   0.0937
  -2.600   0.5811   0.01026   0.00392  -0.1936   0.7742   0.1277
  -2.400   0.6033   0.01006   0.00384  -0.1937   0.7692   0.1686
  -2.200   0.6266   0.00989   0.00375  -0.1940   0.7647   0.2125
  -2.000   0.6507   0.00977   0.00369  -0.1945   0.7607   0.2584
  -1.800   0.6719   0.00965   0.00368  -0.1944   0.7554   0.3006
  -1.600   0.6944   0.00954   0.00365  -0.1945   0.7505   0.3442
  -1.400   0.7182   0.00946   0.00362  -0.1948   0.7462   0.3893
  -1.200   0.7398   0.00939   0.00364  -0.1947   0.7411   0.4336
  -1.000   0.7617   0.00932   0.00366  -0.1946   0.7358   0.4757
  -0.800   0.7847   0.00927   0.00365  -0.1947   0.7312   0.5164
  -0.600   0.8066   0.00925   0.00368  -0.1946   0.7262   0.5538
  -0.400   0.8277   0.00922   0.00372  -0.1944   0.7205   0.5886
  -0.200   0.8500   0.00920   0.00372  -0.1943   0.7156   0.6230
   0.000   0.8716   0.00920   0.00377  -0.1941   0.7104   0.6564
   0.200   0.8920   0.00917   0.00381  -0.1937   0.7045   0.6890
   0.400   0.9135   0.00917   0.00383  -0.1934   0.6993   0.7220
   0.600   0.9336   0.00916   0.00389  -0.1928   0.6937   0.7559
   0.800   0.9526   0.00913   0.00393  -0.1920   0.6875   0.7913
   1.000   0.9714   0.00912   0.00395  -0.1911   0.6823   0.8309
   1.200   0.9855   0.00905   0.00399  -0.1892   0.6760   0.8795
   1.400   1.0009   0.00891   0.00389  -0.1874   0.6699   1.0000
   1.600   1.0237   0.00901   0.00391  -0.1876   0.6642   1.0000
   1.800   1.0446   0.00909   0.00396  -0.1874   0.6572   1.0000
   2.000   1.0666   0.00920   0.00399  -0.1874   0.6510   1.0000
   2.200   1.0875   0.00929   0.00406  -0.1872   0.6442   1.0000
   2.400   1.1085   0.00940   0.00411  -0.1870   0.6372   1.0000
   2.600   1.1295   0.00952   0.00418  -0.1868   0.6306   1.0000
   2.800   1.1497   0.00962   0.00425  -0.1864   0.6232   1.0000
   3.000   1.1705   0.00976   0.00432  -0.1862   0.6164   1.0000
   3.200   1.1902   0.00987   0.00442  -0.1857   0.6085   1.0000
   3.400   1.2104   0.01003   0.00451  -0.1854   0.6014   1.0000
   3.600   1.2297   0.01015   0.00463  -0.1848   0.5933   1.0000
   3.800   1.2494   0.01033   0.00473  -0.1844   0.5860   1.0000
   4.000   1.2682   0.01046   0.00486  -0.1838   0.5775   1.0000
   4.200   1.2871   0.01065   0.00498  -0.1832   0.5698   1.0000
   4.400   1.3056   0.01079   0.00514  -0.1825   0.5611   1.0000
   4.600   1.3238   0.01099   0.00528  -0.1818   0.5532   1.0000
   4.800   1.3417   0.01116   0.00544  -0.1810   0.5444   1.0000
   5.000   1.3592   0.01137   0.00560  -0.1802   0.5361   1.0000
   5.200   1.3763   0.01156   0.00579  -0.1793   0.5271   1.0000
   5.400   1.3932   0.01178   0.00598  -0.1783   0.5188   1.0000
   5.600   1.4093   0.01200   0.00617  -0.1772   0.5098   1.0000
   5.800   1.4249   0.01222   0.00637  -0.1761   0.5013   1.0000
   6.000   1.4392   0.01247   0.00659  -0.1746   0.4924   1.0000
   6.200   1.4540   0.01270   0.00682  -0.1733   0.4837   1.0000
   6.400   1.4675   0.01300   0.00707  -0.1717   0.4752   1.0000
   6.600   1.4821   0.01324   0.00732  -0.1704   0.4662   1.0000
   6.800   1.4952   0.01357   0.00761  -0.1689   0.4580   1.0000
   7.000   1.5093   0.01384   0.00789  -0.1675   0.4489   1.0000
   7.200   1.5222   0.01418   0.00821  -0.1659   0.4407   1.0000
   7.400   1.5354   0.01450   0.00853  -0.1644   0.4318   1.0000
   7.600   1.5480   0.01486   0.00888  -0.1629   0.4234   1.0000
   7.800   1.5603   0.01524   0.00924  -0.1613   0.4147   1.0000
   8.000   1.5727   0.01562   0.00963  -0.1598   0.4064   1.0000
   8.200   1.5843   0.01605   0.01004  -0.1581   0.3980   1.0000
   8.400   1.5964   0.01646   0.01046  -0.1566   0.3896   1.0000
   8.600   1.6068   0.01696   0.01094  -0.1548   0.3812   1.0000
   8.800   1.6189   0.01740   0.01141  -0.1534   0.3729   1.0000
   9.000   1.6282   0.01798   0.01195  -0.1515   0.3646   1.0000
   9.200   1.6401   0.01845   0.01246  -0.1501   0.3563   1.0000
   9.600   1.6601   0.01961   0.01364  -0.1468   0.3397   1.0000
   9.800   1.6681   0.02033   0.01433  -0.1450   0.3318   1.0000
  10.000   1.6787   0.02092   0.01496  -0.1435   0.3231   1.0000
  10.200   1.6866   0.02168   0.01571  -0.1418   0.3151   1.0000
  10.400   1.6960   0.02239   0.01643  -0.1403   0.3066   1.0000
  10.600   1.7037   0.02320   0.01725  -0.1386   0.2986   1.0000
  10.800   1.7116   0.02403   0.01810  -0.1370   0.2900   1.0000
  11.000   1.7194   0.02489   0.01897  -0.1355   0.2818   1.0000
  11.200   1.7252   0.02590   0.01997  -0.1337   0.2731   1.0000
  11.400   1.7332   0.02680   0.02090  -0.1323   0.2648   1.0000
  11.600   1.7373   0.02798   0.02207  -0.1306   0.2566   1.0000
  11.800   1.7453   0.02894   0.02307  -0.1293   0.2479   1.0000
  12.000   1.7494   0.03019   0.02431  -0.1276   0.2399   1.0000
  12.200   1.7555   0.03134   0.02548  -0.1262   0.2312   1.0000
  12.400   1.7599   0.03265   0.02680  -0.1248   0.2229   1.0000
  12.600   1.7632   0.03407   0.02823  -0.1233   0.2143   1.0000
  12.800   1.7680   0.03542   0.02961  -0.1220   0.2060   1.0000
  13.000   1.7694   0.03710   0.03127  -0.1206   0.1981   1.0000
  13.200   1.7743   0.03851   0.03273  -0.1194   0.1898   1.0000
  13.400   1.7751   0.04033   0.03454  -0.1181   0.1823   1.0000
  13.600   1.7787   0.04194   0.03617  -0.1170   0.1742   1.0000
  13.800   1.7796   0.04385   0.03810  -0.1159   0.1669   1.0000
  14.000   1.7813   0.04573   0.04000  -0.1148   0.1592   1.0000
  14.200   1.7822   0.04773   0.04202  -0.1139   0.1521   1.0000
  14.400   1.7823   0.04987   0.04417  -0.1129   0.1451   1.0000
  14.600   1.7831   0.05198   0.04631  -0.1121   0.1386   1.0000
  14.800   1.7825   0.05429   0.04865  -0.1113   0.1321   1.0000
  15.000   1.7823   0.05662   0.05101  -0.1107   0.1262   1.0000
  15.200   1.7817   0.05904   0.05347  -0.1101   0.1201   1.0000
  15.400   1.7799   0.06165   0.05611  -0.1095   0.1147   1.0000
  15.600   1.7792   0.06417   0.05868  -0.1091   0.1089   1.0000
  15.800   1.7746   0.06726   0.06178  -0.1088   0.1039   1.0000
  16.000   1.7752   0.06972   0.06431  -0.1086   0.0985   1.0000
  16.200   1.7701   0.07300   0.06760  -0.1084   0.0936   1.0000
  16.400   1.7689   0.07580   0.07047  -0.1084   0.0888   1.0000
  16.600   1.7647   0.07905   0.07376  -0.1084   0.0842   1.0000
  16.800   1.7600   0.08243   0.07718  -0.1086   0.0801   1.0000
  17.000   1.7576   0.08553   0.08035  -0.1088   0.0758   1.0000
  17.200   1.7506   0.08936   0.08422  -0.1092   0.0720   1.0000
  17.400   1.7476   0.09263   0.08756  -0.1096   0.0683   1.0000
  17.600   1.7433   0.09614   0.09113  -0.1102   0.0647   1.0000
  17.800   1.7347   0.10036   0.09538  -0.1110   0.0615   1.0000
  18.000   1.7321   0.10367   0.09878  -0.1117   0.0584   1.0000
  18.200   1.7268   0.10743   0.10260  -0.1125   0.0553   1.0000
  18.400   1.7179   0.11185   0.10705  -0.1137   0.0526   1.0000
  18.600   1.7150   0.11528   0.11057  -0.1147   0.0498   1.0000
  18.800   1.7098   0.11913   0.11449  -0.1159   0.0472   1.0000
  19.000   1.7010   0.12358   0.11897  -0.1174   0.0449   1.0000
  19.200   1.6970   0.12725   0.12273  -0.1186   0.0426   1.0000
  19.400   1.6924   0.13103   0.12658  -0.1201   0.0402   1.0000
  19.600   1.6848   0.13537   0.13096  -0.1218   0.0381   1.0000
  19.800   1.6791   0.13940   0.13505  -0.1235   0.0362   1.0000
  20.000   1.6755   0.14306   0.13880  -0.1252   0.0341   1.0000
  20.200   1.6693   0.14720   0.14299  -0.1271   0.0324   1.0000
  20.400   1.6611   0.15173   0.14755  -0.1294   0.0308   1.0000
  20.600   1.6592   0.15509   0.15102  -0.1310   0.0289   1.0000
  20.800   1.6542   0.15904   0.15502  -0.1331   0.0274   1.0000
  21.000   1.6470   0.16342   0.15944  -0.1356   0.0260   1.0000
  21.200   1.6429   0.16725   0.16335  -0.1377   0.0246   1.0000
  21.400   1.6399   0.17086   0.16702  -0.1398   0.0231   1.0000
  21.600   1.6341   0.17504   0.17125  -0.1423   0.0220   1.0000
  21.800   1.6270   0.17951   0.17575  -0.1451   0.0209   1.0000
  22.000   1.6253   0.18287   0.17921  -0.1472   0.0196   1.0000
  22.200   1.6212   0.18677   0.18317  -0.1498   0.0185   1.0000
  22.400   1.6152   0.19104   0.18748  -0.1526   0.0177   1.0000
  22.600   1.6106   0.19509   0.19158  -0.1553   0.0167   1.0000
  22.800   1.6083   0.19863   0.19520  -0.1577   0.0156   1.0000
  23.000   1.6039   0.20263   0.19926  -0.1606   0.0149   1.0000
  23.200   1.5983   0.20685   0.20351  -0.1636   0.0142   1.0000
  23.400   1.5942   0.21081   0.20754  -0.1665   0.0134   1.0000
  23.600   1.5918   0.21441   0.21121  -0.1691   0.0126   1.0000
  23.800   1.5878   0.21838   0.21524  -0.1721   0.0119   1.0000
  24.000   1.5829   0.22257   0.21945  -0.1752   0.0114   1.0000
  24.200   1.5794   0.22643   0.22338  -0.1782   0.0108   1.0000
  24.400   1.5771   0.23007   0.22710  -0.1810   0.0101   1.0000
  24.600   1.5736   0.23400   0.23108  -0.1840   0.0096   1.0000
  24.800   1.5707   0.23779   0.23490  -0.1870   0.0092   1.0000
  25.000   1.5665   0.24185   0.23898  -0.1902   0.0086   1.0000
  25.200   1.5650   0.24537   0.24258  -0.1930   0.0082   1.0000
  25.400   1.5626   0.24908   0.24635  -0.1960   0.0077   1.0000
  25.600   1.5604   0.25274   0.25005  -0.1990   0.0074   1.0000
  25.800   1.5582   0.25635   0.25367  -0.2020   0.0070   1.0000
  26.000   1.5559   0.26005   0.25742  -0.2050   0.0065   1.0000
  26.200   1.5545   0.26354   0.26098  -0.2079   0.0062   1.0000
  26.400   1.5524   0.26732   0.26481  -0.2110   0.0058   1.0000
  26.600   1.5512   0.27072   0.26825  -0.2139   0.0055   1.0000
  26.800   1.5512   0.27374   0.27128  -0.2165   0.0053   1.0000
  27.000   1.5510   0.27678   0.27433  -0.2192   0.0050   1.0000
  27.200   1.5491   0.28052   0.27816  -0.2223   0.0048   1.0000
  27.400   1.5477   0.28411   0.28181  -0.2253   0.0045   1.0000
  27.600   1.5474   0.28726   0.28500  -0.2280   0.0043   1.0000
  27.800   1.5464   0.29074   0.28851  -0.2310   0.0040   1.0000
  28.000   1.5476   0.29330   0.29109  -0.2334   0.0039   1.0000
  28.200   1.5487   0.29583   0.29361  -0.2358   0.0037   1.0000
  28.400   1.5483   0.29903   0.29687  -0.2386   0.0036   1.0000
  28.600   1.5450   0.30343   0.30138  -0.2422   0.0035   1.0000
  28.800   1.5438   0.30707   0.30509  -0.2453   0.0034   1.0000
  29.000   1.5411   0.31131   0.30941  -0.2487   0.0032   1.0000
  29.200   1.5385   0.31562   0.31380  -0.2523   0.0032   1.0000
  29.400   1.5351   0.32035   0.31860  -0.2560   0.0031   1.0000
  29.600   1.5291   0.32652   0.32487  -0.2606   0.0030   1.0000
