  
       XFOIL         Version 6.99
  
 Calculated polar for: MH 114  13.02%                                  
  
 1 1 Reynolds number fixed          Mach number fixed         
  
 xtrf =   1.000 (top)        1.000 (bottom)  
 Mach =   0.000     Re =     0.600 e 6     Ncrit =   9.000
  
   alpha    CL        CD       CDp       CM     Top_Xtr  Bot_Xtr
  ------ -------- --------- --------- -------- -------- --------
  -5.000   0.3119   0.01184   0.00604  -0.1916   0.7999   0.0125
  -4.800   0.3350   0.01149   0.00560  -0.1918   0.7959   0.0132
  -4.600   0.3580   0.01114   0.00516  -0.1920   0.7919   0.0140
  -4.400   0.3800   0.01072   0.00474  -0.1921   0.7874   0.0150
  -4.200   0.4027   0.01047   0.00444  -0.1922   0.7830   0.0163
  -4.000   0.4262   0.01018   0.00408  -0.1926   0.7791   0.0183
  -3.800   0.4489   0.00999   0.00387  -0.1927   0.7749   0.0214
  -3.600   0.4713   0.00975   0.00363  -0.1928   0.7703   0.0260
  -3.400   0.4943   0.00953   0.00340  -0.1929   0.7659   0.0328
  -3.200   0.5179   0.00936   0.00320  -0.1933   0.7618   0.0434
  -3.000   0.5402   0.00917   0.00306  -0.1933   0.7573   0.0577
  -2.800   0.5628   0.00898   0.00293  -0.1935   0.7526   0.0775
  -2.600   0.5858   0.00883   0.00283  -0.1937   0.7482   0.1042
  -2.400   0.6089   0.00870   0.00276  -0.1940   0.7439   0.1368
  -2.200   0.6311   0.00855   0.00271  -0.1940   0.7390   0.1716
  -2.000   0.6537   0.00843   0.00266  -0.1942   0.7342   0.2096
  -1.800   0.6768   0.00834   0.00263  -0.1944   0.7298   0.2506
  -1.600   0.6990   0.00824   0.00262  -0.1945   0.7250   0.2890
  -1.400   0.7213   0.00815   0.00260  -0.1946   0.7198   0.3273
  -1.000   0.7663   0.00804   0.00261  -0.1948   0.7102   0.4081
  -0.800   0.7884   0.00797   0.00263  -0.1947   0.7048   0.4484
  -0.600   0.8106   0.00795   0.00265  -0.1948   0.6997   0.4861
  -0.400   0.8327   0.00793   0.00268  -0.1947   0.6946   0.5213
  -0.200   0.8545   0.00791   0.00272  -0.1946   0.6889   0.5544
   0.000   0.8763   0.00791   0.00274  -0.1945   0.6835   0.5866
   0.200   0.8980   0.00791   0.00279  -0.1944   0.6780   0.6182
   0.400   0.9194   0.00790   0.00284  -0.1942   0.6719   0.6485
   0.600   0.9407   0.00794   0.00288  -0.1940   0.6663   0.6790
   0.800   0.9618   0.00793   0.00295  -0.1937   0.6603   0.7104
   1.000   0.9825   0.00794   0.00300  -0.1933   0.6540   0.7416
   1.200   1.0027   0.00797   0.00307  -0.1929   0.6481   0.7746
   1.400   1.0221   0.00795   0.00314  -0.1922   0.6415   0.8113
   1.600   1.0397   0.00796   0.00319  -0.1911   0.6352   0.8534
   1.800   1.0528   0.00788   0.00322  -0.1890   0.6288   0.9150
   2.000   1.0720   0.00787   0.00321  -0.1883   0.6219   1.0000
   2.200   1.0931   0.00799   0.00327  -0.1881   0.6153   1.0000
   2.400   1.1141   0.00809   0.00334  -0.1879   0.6078   1.0000
   2.600   1.1345   0.00823   0.00341  -0.1876   0.6010   1.0000
   2.800   1.1552   0.00832   0.00348  -0.1873   0.5933   1.0000
   3.000   1.1749   0.00848   0.00357  -0.1869   0.5859   1.0000
   3.200   1.1954   0.00859   0.00366  -0.1866   0.5782   1.0000
   3.600   1.2346   0.00887   0.00387  -0.1857   0.5622   1.0000
   4.000   1.2729   0.00918   0.00410  -0.1846   0.5458   1.0000
   4.200   1.2910   0.00938   0.00425  -0.1838   0.5378   1.0000
   4.400   1.3100   0.00952   0.00438  -0.1833   0.5291   1.0000
   4.600   1.3276   0.00972   0.00453  -0.1824   0.5207   1.0000
   4.800   1.3458   0.00989   0.00467  -0.1817   0.5118   1.0000
   5.000   1.3629   0.01009   0.00484  -0.1808   0.5035   1.0000
   5.200   1.3794   0.01028   0.00500  -0.1798   0.4945   1.0000
   5.400   1.3955   0.01048   0.00518  -0.1787   0.4860   1.0000
   5.600   1.4106   0.01072   0.00537  -0.1774   0.4770   1.0000
   5.800   1.4267   0.01092   0.00556  -0.1763   0.4685   1.0000
   6.000   1.4409   0.01120   0.00579  -0.1748   0.4595   1.0000
   6.200   1.4571   0.01141   0.00600  -0.1738   0.4509   1.0000
   6.400   1.4708   0.01171   0.00625  -0.1723   0.4424   1.0000
   6.600   1.4867   0.01193   0.00648  -0.1713   0.4336   1.0000
   6.800   1.5005   0.01224   0.00676  -0.1698   0.4254   1.0000
   7.000   1.5154   0.01251   0.00702  -0.1686   0.4164   1.0000
   7.200   1.5291   0.01283   0.00732  -0.1672   0.4084   1.0000
   7.400   1.5431   0.01314   0.00761  -0.1659   0.3996   1.0000
   7.600   1.5567   0.01348   0.00794  -0.1645   0.3915   1.0000
   7.800   1.5698   0.01384   0.00828  -0.1631   0.3829   1.0000
   8.000   1.5832   0.01420   0.00863  -0.1617   0.3748   1.0000
   8.200   1.5952   0.01462   0.00902  -0.1602   0.3661   1.0000
   8.400   1.6086   0.01499   0.00941  -0.1588   0.3582   1.0000
   8.600   1.6197   0.01547   0.00985  -0.1572   0.3497   1.0000
   8.800   1.6328   0.01587   0.01027  -0.1559   0.3417   1.0000
   9.200   1.6559   0.01684   0.01123  -0.1529   0.3251   1.0000
   9.400   1.6651   0.01746   0.01182  -0.1511   0.3168   1.0000
   9.600   1.6774   0.01794   0.01232  -0.1498   0.3082   1.0000
   9.800   1.6866   0.01859   0.01295  -0.1481   0.3003   1.0000
  10.000   1.6978   0.01916   0.01352  -0.1467   0.2918   1.0000
  10.200   1.7069   0.01984   0.01420  -0.1451   0.2840   1.0000
  10.400   1.7164   0.02054   0.01489  -0.1436   0.2750   1.0000
  10.600   1.7255   0.02127   0.01562  -0.1420   0.2668   1.0000
  10.800   1.7332   0.02210   0.01644  -0.1403   0.2580   1.0000
  11.000   1.7425   0.02286   0.01721  -0.1389   0.2498   1.0000
  11.400   1.7577   0.02465   0.01900  -0.1358   0.2328   1.0000
  11.600   1.7638   0.02569   0.02002  -0.1342   0.2246   1.0000
  11.800   1.7707   0.02669   0.02102  -0.1327   0.2158   1.0000
  12.000   1.7768   0.02777   0.02211  -0.1312   0.2073   1.0000
  12.200   1.7812   0.02901   0.02332  -0.1296   0.1987   1.0000
  12.400   1.7878   0.03012   0.02445  -0.1283   0.1906   1.0000
  12.600   1.7913   0.03151   0.02581  -0.1267   0.1827   1.0000
  12.800   1.7967   0.03276   0.02708  -0.1254   0.1744   1.0000
  13.000   1.8003   0.03421   0.02853  -0.1240   0.1667   1.0000
  13.200   1.8035   0.03572   0.03004  -0.1226   0.1585   1.0000
  13.400   1.8072   0.03724   0.03157  -0.1214   0.1512   1.0000
  13.600   1.8088   0.03898   0.03329  -0.1201   0.1437   1.0000
  13.800   1.8128   0.04053   0.03487  -0.1190   0.1371   1.0000
  14.000   1.8133   0.04247   0.03680  -0.1178   0.1303   1.0000
  14.200   1.8172   0.04411   0.03847  -0.1168   0.1243   1.0000
  14.400   1.8168   0.04622   0.04058  -0.1157   0.1178   1.0000
  14.600   1.8197   0.04805   0.04245  -0.1149   0.1120   1.0000
  14.800   1.8190   0.05029   0.04469  -0.1140   0.1060   1.0000
  15.000   1.8204   0.05236   0.04680  -0.1132   0.1004   1.0000
  15.200   1.8191   0.05477   0.04922  -0.1125   0.0947   1.0000
  15.400   1.8195   0.05705   0.05153  -0.1118   0.0896   1.0000
  15.600   1.8182   0.05959   0.05409  -0.1113   0.0844   1.0000
  15.800   1.8164   0.06222   0.05675  -0.1108   0.0798   1.0000
  16.000   1.8159   0.06473   0.05930  -0.1104   0.0753   1.0000
  16.200   1.8112   0.06785   0.06244  -0.1101   0.0709   1.0000
  16.400   1.8113   0.07042   0.06506  -0.1099   0.0670   1.0000
  16.600   1.8074   0.07355   0.06823  -0.1098   0.0630   1.0000
  16.800   1.8045   0.07659   0.07132  -0.1098   0.0595   1.0000
  17.000   1.8013   0.07972   0.07449  -0.1099   0.0558   1.0000
  17.200   1.7947   0.08339   0.07819  -0.1101   0.0524   1.0000
  17.400   1.7928   0.08643   0.08130  -0.1104   0.0493   1.0000
  17.600   1.7875   0.09003   0.08494  -0.1108   0.0462   1.0000
  17.800   1.7816   0.09379   0.08874  -0.1113   0.0435   1.0000
  18.000   1.7779   0.09720   0.09223  -0.1119   0.0409   1.0000
  18.200   1.7709   0.10117   0.09623  -0.1127   0.0382   1.0000
  18.400   1.7659   0.10489   0.10001  -0.1135   0.0360   1.0000
  18.600   1.7608   0.10865   0.10384  -0.1144   0.0338   1.0000
  18.800   1.7532   0.11285   0.10809  -0.1156   0.0316   1.0000
  19.000   1.7486   0.11657   0.11188  -0.1166   0.0299   1.0000
  19.200   1.7433   0.12042   0.11580  -0.1178   0.0280   1.0000
  19.400   1.7361   0.12462   0.12006  -0.1193   0.0265   1.0000
  19.600   1.7302   0.12861   0.12411  -0.1207   0.0249   1.0000
  19.800   1.7260   0.13233   0.12790  -0.1221   0.0235   1.0000
  20.000   1.7195   0.13647   0.13211  -0.1238   0.0221   1.0000
  20.400   1.7089   0.14436   0.14013  -0.1273   0.0198   1.0000
  20.600   1.7034   0.14837   0.14421  -0.1292   0.0187   1.0000
  20.800   1.6967   0.15258   0.14847  -0.1312   0.0177   1.0000
  21.000   1.6917   0.15647   0.15243  -0.1332   0.0167   1.0000
  21.200   1.6872   0.16033   0.15637  -0.1353   0.0158   1.0000
  21.400   1.6818   0.16433   0.16044  -0.1375   0.0149   1.0000
  21.600   1.6753   0.16858   0.16473  -0.1399   0.0142   1.0000
  21.800   1.6705   0.17253   0.16876  -0.1422   0.0134   1.0000
  22.000   1.6670   0.17619   0.17249  -0.1444   0.0126   1.0000
  22.200   1.6612   0.18037   0.17673  -0.1470   0.0119   1.0000
  22.400   1.6544   0.18475   0.18117  -0.1498   0.0113   1.0000
  22.600   1.6503   0.18861   0.18510  -0.1523   0.0107   1.0000
  22.800   1.6462   0.19245   0.18901  -0.1548   0.0100   1.0000
  23.000   1.6417   0.19639   0.19302  -0.1575   0.0095   1.0000
  23.200   1.6351   0.20082   0.19751  -0.1606   0.0091   1.0000
  23.400   1.6291   0.20512   0.20186  -0.1636   0.0086   1.0000
  23.600   1.6257   0.20887   0.20570  -0.1663   0.0081   1.0000
  23.800   1.6214   0.21280   0.20969  -0.1691   0.0076   1.0000
  24.000   1.6159   0.21703   0.21397  -0.1723   0.0072   1.0000
  24.200   1.6093   0.22154   0.21854  -0.1756   0.0069   1.0000
  24.400   1.6051   0.22554   0.22260  -0.1787   0.0065   1.0000
  24.600   1.6009   0.22958   0.22672  -0.1818   0.0062   1.0000
  24.800   1.5981   0.23328   0.23048  -0.1846   0.0058   1.0000
  25.000   1.5923   0.23773   0.23498  -0.1881   0.0055   1.0000
  25.200   1.5874   0.24200   0.23930  -0.1914   0.0053   1.0000
  25.400   1.5820   0.24644   0.24379  -0.1949   0.0050   1.0000
  25.600   1.5798   0.25006   0.24747  -0.1978   0.0047   1.0000
  25.800   1.5766   0.25395   0.25143  -0.2009   0.0044   1.0000
  26.000   1.5731   0.25796   0.25548  -0.2042   0.0042   1.0000
  26.200   1.5691   0.26210   0.25967  -0.2076   0.0040   1.0000
  26.400   1.5639   0.26662   0.26420  -0.2112   0.0037   1.0000
  26.600   1.5625   0.27013   0.26779  -0.2141   0.0035   1.0000
  26.800   1.5604   0.27380   0.27151  -0.2171   0.0034   1.0000
  27.000   1.5586   0.27742   0.27518  -0.2202   0.0032   1.0000
  27.200   1.5565   0.28113   0.27894  -0.2233   0.0030   1.0000
  27.400   1.5540   0.28498   0.28281  -0.2265   0.0028   1.0000
  27.600   1.5525   0.28845   0.28629  -0.2294   0.0027   1.0000
  27.800   1.5504   0.29230   0.29020  -0.2326   0.0024   1.0000
  28.000   1.5506   0.29528   0.29321  -0.2353   0.0024   1.0000
  28.200   1.5494   0.29879   0.29678  -0.2383   0.0022   1.0000
  28.400   1.5501   0.30165   0.29968  -0.2408   0.0022   1.0000
  28.600   1.5487   0.30520   0.30326  -0.2438   0.0021   1.0000
  28.800   1.5491   0.30816   0.30626  -0.2465   0.0020   1.0000
  29.000   1.5489   0.31125   0.30937  -0.2492   0.0019   1.0000
  29.200   1.5500   0.31389   0.31204  -0.2517   0.0018   1.0000
  29.400   1.5514   0.31624   0.31436  -0.2540   0.0017   1.0000
  29.600   1.5508   0.31960   0.31779  -0.2569   0.0016   1.0000
  29.800   1.5498   0.32307   0.32132  -0.2599   0.0016   1.0000
  30.000   1.5503   0.32594   0.32423  -0.2625   0.0016   1.0000
