  
       XFOIL         Version 6.99
  
 Calculated polar for: MH 114  13.02%                                  
  
 1 1 Reynolds number fixed          Mach number fixed         
  
 xtrf =   1.000 (top)        1.000 (bottom)  
 Mach =   0.000     Re =     0.500 e 6     Ncrit =   9.000
  
   alpha    CL        CD       CDp       CM     Top_Xtr  Bot_Xtr
  ------ -------- --------- --------- -------- -------- --------
  -5.000   0.3108   0.01283   0.00682  -0.1915   0.8115   0.0142
  -4.800   0.3334   0.01240   0.00635  -0.1917   0.8075   0.0149
  -4.600   0.3549   0.01204   0.00596  -0.1917   0.8029   0.0159
  -4.400   0.3776   0.01171   0.00554  -0.1917   0.7985   0.0169
  -4.200   0.4014   0.01129   0.00507  -0.1922   0.7947   0.0184
  -4.000   0.4237   0.01109   0.00483  -0.1923   0.7905   0.0209
  -3.800   0.4459   0.01081   0.00456  -0.1923   0.7858   0.0240
  -3.600   0.4691   0.01050   0.00421  -0.1926   0.7815   0.0284
  -3.400   0.4935   0.01026   0.00391  -0.1930   0.7777   0.0359
  -3.200   0.5154   0.01000   0.00371  -0.1931   0.7731   0.0470
  -3.000   0.5380   0.00978   0.00352  -0.1932   0.7683   0.0624
  -2.800   0.5614   0.00959   0.00336  -0.1934   0.7641   0.0842
  -2.600   0.5847   0.00941   0.00324  -0.1938   0.7599   0.1149
  -2.400   0.6067   0.00923   0.00318  -0.1938   0.7549   0.1508
  -2.200   0.6294   0.00909   0.00311  -0.1940   0.7502   0.1898
  -2.000   0.6530   0.00897   0.00305  -0.1944   0.7461   0.2317
  -1.800   0.6750   0.00886   0.00304  -0.1944   0.7412   0.2729
  -1.600   0.6972   0.00876   0.00302  -0.1945   0.7361   0.3132
  -1.400   0.7202   0.00868   0.00299  -0.1947   0.7315   0.3540
  -1.200   0.7427   0.00862   0.00300  -0.1948   0.7268   0.3965
  -1.000   0.7645   0.00854   0.00302  -0.1947   0.7215   0.4388
  -0.800   0.7870   0.00849   0.00303  -0.1947   0.7165   0.4788
  -0.600   0.8094   0.00848   0.00305  -0.1948   0.7116   0.5166
  -0.400   0.8309   0.00844   0.00309  -0.1946   0.7060   0.5515
  -0.200   0.8528   0.00842   0.00311  -0.1945   0.7007   0.5850
   0.000   0.8749   0.00843   0.00314  -0.1944   0.6957   0.6176
   0.200   0.8958   0.00841   0.00319  -0.1941   0.6897   0.6495
   0.400   0.9172   0.00842   0.00322  -0.1939   0.6841   0.6808
   0.600   0.9383   0.00842   0.00328  -0.1936   0.6786   0.7128
   0.800   0.9586   0.00841   0.00333  -0.1932   0.6723   0.7450
   1.000   0.9789   0.00843   0.00338  -0.1927   0.6667   0.7790
   1.200   0.9977   0.00841   0.00344  -0.1918   0.6605   0.8163
   1.400   1.0146   0.00838   0.00349  -0.1905   0.6541   0.8603
   1.600   1.0262   0.00829   0.00347  -0.1880   0.6485   0.9310
   1.800   1.0481   0.00830   0.00347  -0.1879   0.6416   1.0000
   2.000   1.0695   0.00841   0.00351  -0.1878   0.6350   1.0000
   2.200   1.0907   0.00851   0.00357  -0.1877   0.6282   1.0000
   2.400   1.1115   0.00862   0.00363  -0.1874   0.6210   1.0000
   2.600   1.1323   0.00874   0.00371  -0.1872   0.6142   1.0000
   2.800   1.1527   0.00885   0.00378  -0.1869   0.6067   1.0000
   3.000   1.1729   0.00899   0.00386  -0.1865   0.5996   1.0000
   3.200   1.1929   0.00911   0.00396  -0.1861   0.5917   1.0000
   3.400   1.2126   0.00926   0.00406  -0.1857   0.5843   1.0000
   3.600   1.2322   0.00939   0.00417  -0.1852   0.5762   1.0000
   3.800   1.2513   0.00956   0.00428  -0.1846   0.5685   1.0000
   4.000   1.2704   0.00970   0.00440  -0.1841   0.5601   1.0000
   4.200   1.2890   0.00988   0.00454  -0.1834   0.5522   1.0000
   4.400   1.3076   0.01004   0.00468  -0.1828   0.5436   1.0000
   4.600   1.3256   0.01023   0.00483  -0.1821   0.5355   1.0000
   4.800   1.3433   0.01041   0.00498  -0.1812   0.5265   1.0000
   5.000   1.3608   0.01061   0.00514  -0.1804   0.5181   1.0000
   5.200   1.3775   0.01082   0.00532  -0.1794   0.5092   1.0000
   5.400   1.3940   0.01101   0.00550  -0.1784   0.5008   1.0000
   5.600   1.4088   0.01125   0.00569  -0.1770   0.4919   1.0000
   5.800   1.4247   0.01145   0.00589  -0.1759   0.4832   1.0000
   6.000   1.4385   0.01173   0.00612  -0.1744   0.4746   1.0000
   6.200   1.4542   0.01194   0.00634  -0.1733   0.4655   1.0000
   6.400   1.4682   0.01223   0.00658  -0.1718   0.4573   1.0000
   6.600   1.4830   0.01248   0.00683  -0.1706   0.4483   1.0000
   6.800   1.4970   0.01278   0.00711  -0.1691   0.4402   1.0000
   7.000   1.5112   0.01307   0.00739  -0.1678   0.4312   1.0000
   7.200   1.5247   0.01339   0.00769  -0.1664   0.4229   1.0000
   7.400   1.5380   0.01373   0.00801  -0.1649   0.4143   1.0000
   7.600   1.5516   0.01406   0.00834  -0.1635   0.4058   1.0000
   7.800   1.5637   0.01445   0.00871  -0.1619   0.3974   1.0000
   8.000   1.5772   0.01480   0.00906  -0.1606   0.3890   1.0000
   8.200   1.5883   0.01526   0.00949  -0.1589   0.3805   1.0000
   8.400   1.6018   0.01562   0.00987  -0.1576   0.3724   1.0000
   8.800   1.6252   0.01654   0.01078  -0.1545   0.3558   1.0000
   9.000   1.6349   0.01710   0.01131  -0.1527   0.3476   1.0000
   9.200   1.6473   0.01756   0.01179  -0.1514   0.3391   1.0000
   9.400   1.6569   0.01816   0.01237  -0.1497   0.3313   1.0000
   9.600   1.6682   0.01869   0.01292  -0.1483   0.3226   1.0000
   9.800   1.6776   0.01934   0.01356  -0.1466   0.3145   1.0000
  10.000   1.6877   0.01996   0.01419  -0.1451   0.3060   1.0000
  10.200   1.6970   0.02065   0.01488  -0.1435   0.2981   1.0000
  10.400   1.7058   0.02139   0.01561  -0.1419   0.2895   1.0000
  10.600   1.7151   0.02212   0.01636  -0.1404   0.2814   1.0000
  10.800   1.7217   0.02302   0.01724  -0.1386   0.2725   1.0000
  11.000   1.7314   0.02376   0.01801  -0.1373   0.2644   1.0000
  11.200   1.7367   0.02481   0.01903  -0.1355   0.2560   1.0000
  11.400   1.7460   0.02562   0.01987  -0.1342   0.2474   1.0000
  11.600   1.7516   0.02670   0.02094  -0.1325   0.2393   1.0000
  11.800   1.7586   0.02771   0.02196  -0.1311   0.2306   1.0000
  12.000   1.7644   0.02883   0.02309  -0.1296   0.2222   1.0000
  12.200   1.7687   0.03010   0.02435  -0.1280   0.2136   1.0000
  12.400   1.7750   0.03125   0.02551  -0.1267   0.2051   1.0000
  12.600   1.7776   0.03272   0.02697  -0.1251   0.1971   1.0000
  12.800   1.7835   0.03396   0.02823  -0.1239   0.1887   1.0000
  13.000   1.7864   0.03549   0.02976  -0.1225   0.1809   1.0000
  13.200   1.7899   0.03701   0.03129  -0.1212   0.1727   1.0000
  13.400   1.7932   0.03857   0.03286  -0.1200   0.1652   1.0000
  13.600   1.7943   0.04039   0.03467  -0.1187   0.1574   1.0000
  13.800   1.7978   0.04202   0.03632  -0.1176   0.1500   1.0000
  14.000   1.7976   0.04406   0.03835  -0.1164   0.1430   1.0000
  14.200   1.8012   0.04576   0.04010  -0.1155   0.1363   1.0000
  14.400   1.8002   0.04798   0.04231  -0.1145   0.1298   1.0000
  14.600   1.8032   0.04982   0.04420  -0.1137   0.1237   1.0000
  14.800   1.8017   0.05219   0.04658  -0.1128   0.1177   1.0000
  15.000   1.8038   0.05422   0.04865  -0.1121   0.1120   1.0000
  15.200   1.8020   0.05674   0.05118  -0.1114   0.1062   1.0000
  15.400   1.8021   0.05908   0.05357  -0.1109   0.1009   1.0000
  15.600   1.8004   0.06169   0.05619  -0.1104   0.0953   1.0000
  15.800   1.7986   0.06436   0.05890  -0.1099   0.0904   1.0000
  16.000   1.7972   0.06705   0.06163  -0.1096   0.0853   1.0000
  16.200   1.7927   0.07019   0.06479  -0.1094   0.0808   1.0000
  16.400   1.7925   0.07281   0.06747  -0.1093   0.0764   1.0000
  16.600   1.7876   0.07612   0.07081  -0.1092   0.0723   1.0000
  16.800   1.7850   0.07916   0.07392  -0.1093   0.0686   1.0000
  17.000   1.7817   0.08234   0.07714  -0.1094   0.0647   1.0000
  17.200   1.7748   0.08611   0.08095  -0.1098   0.0612   1.0000
  17.400   1.7731   0.08916   0.08408  -0.1101   0.0580   1.0000
  17.600   1.7677   0.09281   0.08777  -0.1106   0.0547   1.0000
  17.800   1.7610   0.09670   0.09170  -0.1112   0.0517   1.0000
  18.000   1.7582   0.10001   0.09509  -0.1118   0.0488   1.0000
  18.200   1.7512   0.10401   0.09914  -0.1127   0.0460   1.0000
  18.400   1.7445   0.10803   0.10321  -0.1136   0.0435   1.0000
  18.600   1.7411   0.11152   0.10678  -0.1145   0.0409   1.0000
  18.800   1.7338   0.11570   0.11100  -0.1158   0.0385   1.0000
  19.000   1.7268   0.11984   0.11520  -0.1170   0.0365   1.0000
  19.200   1.7230   0.12345   0.11888  -0.1182   0.0342   1.0000
  19.400   1.7164   0.12755   0.12303  -0.1197   0.0323   1.0000
  19.600   1.7086   0.13191   0.12746  -0.1214   0.0305   1.0000
  19.800   1.7052   0.13551   0.13115  -0.1228   0.0288   1.0000
  20.000   1.6994   0.13954   0.13522  -0.1245   0.0270   1.0000
  20.200   1.6914   0.14398   0.13971  -0.1265   0.0258   1.0000
  20.400   1.6882   0.14758   0.14339  -0.1282   0.0241   1.0000
  20.600   1.6833   0.15148   0.14736  -0.1301   0.0227   1.0000
  20.800   1.6761   0.15581   0.15173  -0.1323   0.0215   1.0000
  21.000   1.6715   0.15968   0.15567  -0.1344   0.0203   1.0000
  21.200   1.6677   0.16340   0.15946  -0.1364   0.0191   1.0000
  21.400   1.6616   0.16758   0.16371  -0.1388   0.0181   1.0000
  21.600   1.6545   0.17200   0.16817  -0.1414   0.0173   1.0000
  21.800   1.6517   0.17556   0.17182  -0.1435   0.0163   1.0000
  22.000   1.6473   0.17943   0.17576  -0.1458   0.0154   1.0000
  22.200   1.6420   0.18354   0.17991  -0.1485   0.0145   1.0000
  22.400   1.6341   0.18819   0.18462  -0.1515   0.0139   1.0000
  22.600   1.6320   0.19166   0.18817  -0.1538   0.0131   1.0000
  22.800   1.6282   0.19549   0.19206  -0.1563   0.0123   1.0000
  23.000   1.6229   0.19965   0.19628  -0.1592   0.0118   1.0000
  23.200   1.6163   0.20410   0.20077  -0.1624   0.0112   1.0000
  23.400   1.6125   0.20796   0.20472  -0.1651   0.0106   1.0000
  23.600   1.6096   0.21160   0.20844  -0.1678   0.0100   1.0000
  23.800   1.6044   0.21580   0.21269  -0.1708   0.0094   1.0000
  24.000   1.5988   0.22012   0.21705  -0.1741   0.0090   1.0000
  24.200   1.5937   0.22434   0.22133  -0.1772   0.0086   1.0000
  24.400   1.5913   0.22794   0.22500  -0.1800   0.0080   1.0000
  24.600   1.5871   0.23202   0.22914  -0.1831   0.0076   1.0000
  24.800   1.5837   0.23591   0.23308  -0.1862   0.0073   1.0000
  25.000   1.5774   0.24050   0.23770  -0.1898   0.0069   1.0000
  25.200   1.5746   0.24429   0.24155  -0.1927   0.0065   1.0000
  25.400   1.5721   0.24803   0.24536  -0.1957   0.0062   1.0000
  25.600   1.5696   0.25174   0.24912  -0.1987   0.0058   1.0000
  25.800   1.5662   0.25573   0.25317  -0.2019   0.0055   1.0000
  26.000   1.5623   0.25985   0.25730  -0.2053   0.0052   1.0000
  26.200   1.5601   0.26353   0.26103  -0.2083   0.0049   1.0000
  26.400   1.5578   0.26733   0.26490  -0.2114   0.0046   1.0000
  26.600   1.5565   0.27080   0.26841  -0.2143   0.0044   1.0000
  26.800   1.5548   0.27436   0.27202  -0.2173   0.0042   1.0000
  27.000   1.5529   0.27802   0.27571  -0.2204   0.0040   1.0000
  27.200   1.5522   0.28121   0.27887  -0.2231   0.0037   1.0000
  27.400   1.5505   0.28486   0.28261  -0.2262   0.0035   1.0000
  27.600   1.5495   0.28824   0.28604  -0.2290   0.0034   1.0000
  27.800   1.5480   0.29191   0.28976  -0.2321   0.0031   1.0000
  28.000   1.5487   0.29470   0.29259  -0.2346   0.0030   1.0000
  28.200   1.5474   0.29827   0.29618  -0.2377   0.0028   1.0000
  28.400   1.5484   0.30094   0.29888  -0.2402   0.0028   1.0000
  28.600   1.5498   0.30327   0.30118  -0.2424   0.0026   1.0000
  28.800   1.5501   0.30628   0.30427  -0.2451   0.0025   1.0000
  29.000   1.5483   0.31006   0.30812  -0.2483   0.0024   1.0000
  29.200   1.5484   0.31315   0.31127  -0.2510   0.0024   1.0000
  29.400   1.5469   0.31691   0.31509  -0.2542   0.0022   1.0000
  29.600   1.5463   0.32031   0.31854  -0.2571   0.0022   1.0000
  29.800   1.5450   0.32398   0.32227  -0.2602   0.0021   1.0000
  30.000   1.5443   0.32744   0.32578  -0.2632   0.0021   1.0000
